version 2
run General-0-20220530-08:39:21-15400
attr configname General
attr datetime 20220530-08:39:21
attr experiment General
attr inifile omnetpp.ini
attr iterationvars ""
attr iterationvarsf ""
attr measurement ""
attr network Network
attr processid 15400
attr repetition 0
attr replication #0
attr resultdir results
attr runnumber 0
attr seedset 0
param Network.nodeTx.gen.generationInterval exponential(0.2)
param Network.**.serviceTime exponential(0.001)
param Network.nodeTx.gen.packetByteSize 12500
param Network.queue.bufferSize 200
param Network.nodeTx.queue.bufferSize 2000000
param Network.nodeRx.queue.bufferSize 200
param Network.confirmQueue.bufferSize 200

vector 0 Network.nodeTx.queue bufferSize ETV
vector 1 Network.nodeTx.queue packetsSend ETV
vector 2 Network.queue bufferSize ETV
vector 3 Network.queue packetsSend ETV
vector 4 Network.nodeRx.queue bufferSize ETV
vector 5 Network.nodeRx.queue packetsSend ETV
vector 6 Network.nodeRx.sink Delay ETV
vector 7 Network.confirmQueue bufferSize ETV
vector 8 Network.confirmQueue packetsSend ETV
0	2	0.159174900913	1
0	16	0.559590900913	1
0	28	1.559590900913	1
0	40	3.559590900913	1
0	54	3.960006900913	1
0	68	4.360422900913	1
0	82	4.760838900913	1
0	87	5.760838900913	1
0	101	6.161254900913	1
0	113	7.161254900913	1
0	127	7.561670900913	1
0	141	7.962086900913	1
0	155	8.362502900913	1
0	169	8.762918900913	1
0	174	9.762918900913	1
0	188	10.163334900913	1
0	200	11.163334900913	1
0	214	11.563750900913	1
0	228	11.964166900913	1
0	242	12.364582900913	1
0	257	12.80928778532	1
0	271	13.20970378532	1
0	286	13.872686241306	1
0	300	14.273102241306	1
0	314	14.673518241306	1
0	328	15.073934241306	1
0	333	16.073934241306	1
0	338	18.073934241306	1
0	352	18.474350241306	1
0	364	19.474350241306	1
0	378	19.874766241306	1
0	390	20.874766241306	1
0	404	21.275182241306	1
0	409	22.275182241306	1
0	414	24.275182241306	1
0	428	24.675598241306	1
0	440	25.675598241306	1
0	454	26.076014241306	1
0	468	26.476430241306	1
0	480	27.476430241306	1
0	492	29.476430241306	1
0	506	29.876846241306	1
0	520	30.277262241306	1
0	532	31.277262241306	1
0	546	31.677678241306	1
0	560	32.078094241306	1
0	574	32.478510241306	1
0	588	32.878926241306	1
0	602	33.279342241306	1
0	614	34.279342241306	1
0	628	34.679758241306	1
0	642	35.080174241306	1
0	657	35.710208227041	1
0	671	36.110624227041	1
0	676	37.110624227041	1
0	681	39.110624227041	1
0	695	39.511040227041	1
0	710	39.919103078629	1
0	725	40.327281521811	1
0	740	41.096325895639	1
0	754	41.496741895639	1
0	766	42.496741895639	1
0	780	42.897157895639	1
0	785	43.897157895639	1
0	799	44.297573895639	1
0	811	45.297573895639	1
0	825	45.697989895639	1
0	839	46.098405895639	1
0	853	46.498821895639	1
0	858	47.498821895639	1
0	872	47.899237895639	1
0	886	48.299653895639	1
0	900	48.700069895639	1
0	912	49.700069895639	1
0	926	50.100485895639	1
0	940	50.500901895639	1
0	954	50.901317895639	1
0	968	51.301733895639	1
0	983	51.880617991236	1
0	988	52.880617991236	1
0	1002	53.281033991236	1
0	1007	54.281033991236	1
0	1012	56.281033991236	1
0	1026	56.681449991236	1
0	1040	57.081865991236	1
0	1045	58.081865991236	1
0	1059	58.482281991236	1
0	1071	59.482281991236	1
0	1085	59.882697991236	1
0	1099	60.283113991236	1
0	1111	61.283113991236	1
0	1123	63.283113991236	1
0	1137	63.683529991236	1
0	1151	64.083945991236	1
0	1165	64.484361991236	1
0	1179	64.884777991236	1
0	1191	65.884777991236	1
0	1205	66.285193991236	1
0	1219	66.685609991236	1
0	1233	67.086025991236	1
0	1238	68.086025991236	1
0	1252	68.486441991236	1
0	1266	68.886857991236	1
0	1271	69.886857991236	1
0	1285	70.287273991236	1
0	1290	71.287273991236	1
0	1304	71.687689991236	1
0	1318	72.088105991236	1
0	1332	72.488521991236	1
0	1346	72.888937991236	1
0	1360	73.289353991236	1
0	1375	73.864936995492	1
0	1390	74.330719670335	1
0	1395	75.330719670335	1
0	1409	75.731135670335	1
0	1423	76.131551670335	1
0	1437	76.531967670335	1
0	1451	76.932383670335	1
0	1465	77.332799670335	1
0	1470	78.332799670335	1
0	1482	80.332799670335	1
0	1496	80.733215670335	1
0	1501	81.733215670335	1
0	1513	83.733215670335	1
0	1518	85.733215670335	1
0	1532	86.133631670335	1
0	1546	86.534047670335	1
0	1560	86.934463670335	1
0	1575	87.634506407226	1
0	1587	88.634506407226	1
0	1601	89.034922407226	1
0	1615	89.435338407226	1
0	1629	89.835754407226	1
0	1643	90.236170407226	1
0	1655	91.236170407226	1
0	1669	91.636586407226	1
0	1674	92.636586407226	1
0	1679	94.636586407226	1
0	1693	95.037002407226	1
0	1698	96.037002407226	1
0	1710	98.037002407226	1
0	1715	100.037002407226	1
0	1729	100.437418407226	1
0	1743	100.837834407226	1
0	1748	101.837834407226	1
0	1762	102.238250407226	1
0	1776	102.638666407226	1
0	1790	103.039082407226	1
0	1804	103.439498407226	1
0	1809	104.439498407226	1
0	1823	104.839914407226	1
0	1837	105.240330407226	1
0	1842	106.240330407226	1
0	1856	106.640746407226	1
0	1870	107.041162407226	1
0	1882	108.041162407226	1
0	1896	108.441578407226	1
0	1901	109.441578407226	1
0	1915	109.841994407226	1
0	1929	110.242410407226	1
0	1943	110.642826407226	1
0	1957	111.043242407226	1
0	1969	112.043242407226	1
0	1974	114.043242407226	1
0	1988	114.443658407226	1
0	2000	115.443658407226	1
0	2005	117.443658407226	1
0	2019	117.844074407226	1
0	2034	118.916094477275	1
0	2046	119.916094477275	1
0	2060	120.316510477275	1
0	2074	120.716926477275	1
0	2088	121.117342477275	1
0	2102	121.517758477275	1
0	2116	121.918174477275	1
0	2121	122.918174477275	1
0	2135	123.318590477275	1
0	2149	123.719006477275	1
0	2163	124.119422477275	1
0	2175	125.119422477275	1
0	2189	125.519838477275	1
0	2203	125.920254477275	1
0	2217	126.320670477275	1
0	2222	127.320670477275	1
0	2234	129.320670477275	1
0	2248	129.721086477275	1
0	2253	130.721086477275	1
0	2267	131.121502477275	1
0	2272	132.121502477275	1
0	2286	132.521918477275	1
0	2300	132.922334477275	1
0	2312	133.922334477275	1
0	2326	134.322750477275	1
0	2340	134.723166477275	1
0	2345	135.723166477275	1
0	2350	137.723166477275	1
0	2355	139.723166477275	1
0	2369	140.123582477275	1
0	2374	141.123582477275	1
0	2388	141.523998477275	1
0	2402	141.924414477275	1
0	2407	142.924414477275	1
0	2419	144.924414477275	1
0	2433	145.324830477275	1
0	2447	145.725246477275	1
0	2459	146.725246477275	1
0	2473	147.125662477275	1
0	2487	147.526078477275	1
0	2501	147.926494477275	1
0	2506	148.926494477275	1
0	2511	150.926494477275	1
0	2516	152.926494477275	1
0	2530	153.326910477275	1
0	2544	153.727326477275	1
0	2549	154.727326477275	1
0	2563	155.127742477275	1
0	2578	155.877548769192	1
0	2593	156.29861302935	1
0	2607	156.69902902935	1
0	2621	157.09944502935	1
0	2636	157.851830486251	1
0	2650	158.252246486251	1
0	2664	158.652662486251	1
0	2678	159.053078486251	1
0	2692	159.453494486251	1
0	2706	159.853910486251	1
0	2720	160.254326486251	1
0	2734	160.654742486251	1
0	2748	161.055158486251	1
0	2763	161.83347251082	1
0	2768	162.83347251082	1
0	2782	163.23388851082	1
0	2796	163.63430451082	1
0	2808	164.63430451082	1
0	2822	165.03472051082	1
0	2836	165.43513651082	1
0	2841	166.43513651082	1
0	2855	166.83555251082	1
0	2869	167.23596851082	1
0	2883	167.63638451082	1
0	2895	168.63638451082	1
0	2909	169.03680051082	1
0	2914	170.03680051082	1
0	2928	170.43721651082	1
0	2943	170.937998867437	1
0	2948	171.937998867437	1
0	2962	172.338414867437	1
0	2967	173.338414867437	1
0	2981	173.738830867437	1
0	2993	174.738830867437	1
0	3007	175.139246867437	1
0	3021	175.539662867437	1
0	3035	175.940078867437	1
0	3050	176.340726971938	1
0	3064	176.741142971938	1
0	3076	177.741142971938	1
0	3090	178.141558971938	1
0	3104	178.541974971938	1
0	3116	179.541974971938	1
0	3130	179.942390971938	1
0	3142	180.942390971938	1
0	3156	181.342806971938	1
0	3171	181.85086787353	1
0	3183	182.85086787353	1
0	3197	183.25128387353	1
0	3202	184.25128387353	1
0	3214	186.25128387353	1
0	3228	186.65169987353	1
0	3243	187.181551059265	1
0	3257	187.581967059265	1
0	3269	188.581967059265	1
0	3283	188.982383059265	1
0	3295	189.982383059265	1
0	3307	191.982383059265	1
0	3321	192.382799059265	1
0	3335	192.783215059265	1
0	3349	193.183631059265	1
0	3354	194.183631059265	1
0	3368	194.584047059265	1
0	3382	194.984463059265	1
0	3394	195.984463059265	1
0	3399	197.984463059265	1
0	3413	198.384879059265	1
0	3427	198.785295059265	1
0	3432	199.785295059265	1
1	3	0.159174900913	0
1	17	0.559590900913	1
1	29	1.559590900913	2
1	41	3.559590900913	3
1	55	3.960006900913	4
1	69	4.360422900913	5
1	83	4.760838900913	6
1	88	5.760838900913	7
1	102	6.161254900913	8
1	114	7.161254900913	9
1	128	7.561670900913	10
1	142	7.962086900913	11
1	156	8.362502900913	12
1	170	8.762918900913	13
1	175	9.762918900913	14
1	189	10.163334900913	15
1	201	11.163334900913	16
1	215	11.563750900913	17
1	229	11.964166900913	18
1	243	12.364582900913	19
1	258	12.80928778532	20
1	272	13.20970378532	21
1	287	13.872686241306	22
1	301	14.273102241306	23
1	315	14.673518241306	24
1	329	15.073934241306	25
1	334	16.073934241306	26
1	339	18.073934241306	27
1	353	18.474350241306	28
1	365	19.474350241306	29
1	379	19.874766241306	30
1	391	20.874766241306	31
1	405	21.275182241306	32
1	410	22.275182241306	33
1	415	24.275182241306	34
1	429	24.675598241306	35
1	441	25.675598241306	36
1	455	26.076014241306	37
1	469	26.476430241306	38
1	481	27.476430241306	39
1	493	29.476430241306	40
1	507	29.876846241306	41
1	521	30.277262241306	42
1	533	31.277262241306	43
1	547	31.677678241306	44
1	561	32.078094241306	45
1	575	32.478510241306	46
1	589	32.878926241306	47
1	603	33.279342241306	48
1	615	34.279342241306	49
1	629	34.679758241306	50
1	643	35.080174241306	51
1	658	35.710208227041	52
1	672	36.110624227041	53
1	677	37.110624227041	54
1	682	39.110624227041	55
1	696	39.511040227041	56
1	711	39.919103078629	57
1	726	40.327281521811	58
1	741	41.096325895639	59
1	755	41.496741895639	60
1	767	42.496741895639	61
1	781	42.897157895639	62
1	786	43.897157895639	63
1	800	44.297573895639	64
1	812	45.297573895639	65
1	826	45.697989895639	66
1	840	46.098405895639	67
1	854	46.498821895639	68
1	859	47.498821895639	69
1	873	47.899237895639	70
1	887	48.299653895639	71
1	901	48.700069895639	72
1	913	49.700069895639	73
1	927	50.100485895639	74
1	941	50.500901895639	75
1	955	50.901317895639	76
1	969	51.301733895639	77
1	984	51.880617991236	78
1	989	52.880617991236	79
1	1003	53.281033991236	80
1	1008	54.281033991236	81
1	1013	56.281033991236	82
1	1027	56.681449991236	83
1	1041	57.081865991236	84
1	1046	58.081865991236	85
1	1060	58.482281991236	86
1	1072	59.482281991236	87
1	1086	59.882697991236	88
1	1100	60.283113991236	89
1	1112	61.283113991236	90
1	1124	63.283113991236	91
1	1138	63.683529991236	92
1	1152	64.083945991236	93
1	1166	64.484361991236	94
1	1180	64.884777991236	95
1	1192	65.884777991236	96
1	1206	66.285193991236	97
1	1220	66.685609991236	98
1	1234	67.086025991236	99
1	1239	68.086025991236	100
1	1253	68.486441991236	101
1	1267	68.886857991236	102
1	1272	69.886857991236	103
1	1286	70.287273991236	104
1	1291	71.287273991236	105
1	1305	71.687689991236	106
1	1319	72.088105991236	107
1	1333	72.488521991236	108
1	1347	72.888937991236	109
1	1361	73.289353991236	110
1	1376	73.864936995492	111
1	1391	74.330719670335	112
1	1396	75.330719670335	113
1	1410	75.731135670335	114
1	1424	76.131551670335	115
1	1438	76.531967670335	116
1	1452	76.932383670335	117
1	1466	77.332799670335	118
1	1471	78.332799670335	119
1	1483	80.332799670335	120
1	1497	80.733215670335	121
1	1502	81.733215670335	122
1	1514	83.733215670335	123
1	1519	85.733215670335	124
1	1533	86.133631670335	125
1	1547	86.534047670335	126
1	1561	86.934463670335	127
1	1576	87.634506407226	128
1	1588	88.634506407226	129
1	1602	89.034922407226	130
1	1616	89.435338407226	131
1	1630	89.835754407226	132
1	1644	90.236170407226	133
1	1656	91.236170407226	134
1	1670	91.636586407226	135
1	1675	92.636586407226	136
1	1680	94.636586407226	137
1	1694	95.037002407226	138
1	1699	96.037002407226	139
1	1711	98.037002407226	140
1	1716	100.037002407226	141
1	1730	100.437418407226	142
1	1744	100.837834407226	143
1	1749	101.837834407226	144
1	1763	102.238250407226	145
1	1777	102.638666407226	146
1	1791	103.039082407226	147
1	1805	103.439498407226	148
1	1810	104.439498407226	149
1	1824	104.839914407226	150
1	1838	105.240330407226	151
1	1843	106.240330407226	152
1	1857	106.640746407226	153
1	1871	107.041162407226	154
1	1883	108.041162407226	155
1	1897	108.441578407226	156
1	1902	109.441578407226	157
1	1916	109.841994407226	158
1	1930	110.242410407226	159
1	1944	110.642826407226	160
1	1958	111.043242407226	161
1	1970	112.043242407226	162
1	1975	114.043242407226	163
1	1989	114.443658407226	164
1	2001	115.443658407226	165
1	2006	117.443658407226	166
1	2020	117.844074407226	167
1	2035	118.916094477275	168
1	2047	119.916094477275	169
1	2061	120.316510477275	170
1	2075	120.716926477275	171
1	2089	121.117342477275	172
1	2103	121.517758477275	173
1	2117	121.918174477275	174
1	2122	122.918174477275	175
1	2136	123.318590477275	176
1	2150	123.719006477275	177
1	2164	124.119422477275	178
1	2176	125.119422477275	179
1	2190	125.519838477275	180
1	2204	125.920254477275	181
1	2218	126.320670477275	182
1	2223	127.320670477275	183
1	2235	129.320670477275	184
1	2249	129.721086477275	185
1	2254	130.721086477275	186
1	2268	131.121502477275	187
1	2273	132.121502477275	188
1	2287	132.521918477275	189
1	2301	132.922334477275	190
1	2313	133.922334477275	191
1	2327	134.322750477275	192
1	2341	134.723166477275	193
1	2346	135.723166477275	194
1	2351	137.723166477275	195
1	2356	139.723166477275	196
1	2370	140.123582477275	197
1	2375	141.123582477275	198
1	2389	141.523998477275	199
1	2403	141.924414477275	200
1	2408	142.924414477275	201
1	2420	144.924414477275	202
1	2434	145.324830477275	203
1	2448	145.725246477275	204
1	2460	146.725246477275	205
1	2474	147.125662477275	206
1	2488	147.526078477275	207
1	2502	147.926494477275	208
1	2507	148.926494477275	209
1	2512	150.926494477275	210
1	2517	152.926494477275	211
1	2531	153.326910477275	212
1	2545	153.727326477275	213
1	2550	154.727326477275	214
1	2564	155.127742477275	215
1	2579	155.877548769192	216
1	2594	156.29861302935	217
1	2608	156.69902902935	218
1	2622	157.09944502935	219
1	2637	157.851830486251	220
1	2651	158.252246486251	221
1	2665	158.652662486251	222
1	2679	159.053078486251	223
1	2693	159.453494486251	224
1	2707	159.853910486251	225
1	2721	160.254326486251	226
1	2735	160.654742486251	227
1	2749	161.055158486251	228
1	2764	161.83347251082	229
1	2769	162.83347251082	230
1	2783	163.23388851082	231
1	2797	163.63430451082	232
1	2809	164.63430451082	233
1	2823	165.03472051082	234
1	2837	165.43513651082	235
1	2842	166.43513651082	236
1	2856	166.83555251082	237
1	2870	167.23596851082	238
1	2884	167.63638451082	239
1	2896	168.63638451082	240
1	2910	169.03680051082	241
1	2915	170.03680051082	242
1	2929	170.43721651082	243
1	2944	170.937998867437	244
1	2949	171.937998867437	245
1	2963	172.338414867437	246
1	2968	173.338414867437	247
1	2982	173.738830867437	248
1	2994	174.738830867437	249
1	3008	175.139246867437	250
1	3022	175.539662867437	251
1	3036	175.940078867437	252
1	3051	176.340726971938	253
1	3065	176.741142971938	254
1	3077	177.741142971938	255
1	3091	178.141558971938	256
1	3105	178.541974971938	257
1	3117	179.541974971938	258
1	3131	179.942390971938	259
1	3143	180.942390971938	260
1	3157	181.342806971938	261
1	3172	181.85086787353	262
1	3184	182.85086787353	263
1	3198	183.25128387353	264
1	3203	184.25128387353	265
1	3215	186.25128387353	266
1	3229	186.65169987353	267
1	3244	187.181551059265	268
1	3258	187.581967059265	269
1	3270	188.581967059265	270
1	3284	188.982383059265	271
1	3296	189.982383059265	272
1	3308	191.982383059265	273
1	3322	192.382799059265	274
1	3336	192.783215059265	275
1	3350	193.183631059265	276
1	3355	194.183631059265	277
1	3369	194.584047059265	278
1	3383	194.984463059265	279
1	3395	195.984463059265	280
1	3400	197.984463059265	281
1	3414	198.384879059265	282
1	3428	198.785295059265	283
1	3433	199.785295059265	284
2	5	0.259274900913	1
2	19	0.659690900913	1
2	31	1.659690900913	1
2	43	3.659690900913	1
2	57	4.060106900913	1
2	71	4.460522900913	1
2	90	5.860938900913	1
2	104	6.261354900913	1
2	116	7.261354900913	1
2	130	7.661770900913	1
2	144	8.062186900913	1
2	158	8.462602900913	1
2	177	9.863018900913	1
2	191	10.263434900913	1
2	203	11.263434900913	1
2	217	11.663850900913	1
2	231	12.064266900913	1
2	245	12.464682900913	1
2	260	12.90938778532	1
2	274	13.30980378532	1
2	289	13.972786241306	1
2	303	14.373202241306	1
2	317	14.773618241306	1
2	341	18.174034241306	1
2	355	18.574450241306	1
2	367	19.574450241306	1
2	381	19.974866241306	1
2	393	20.974866241306	1
2	417	24.375282241306	1
2	431	24.775698241306	1
2	443	25.775698241306	1
2	457	26.176114241306	1
2	471	26.576530241306	1
2	483	27.576530241306	1
2	495	29.576530241306	1
2	509	29.976946241306	1
2	523	30.377362241306	1
2	535	31.377362241306	1
2	549	31.777778241306	1
2	563	32.178194241306	1
2	577	32.578610241306	1
2	591	32.979026241306	1
2	605	33.379442241306	1
2	617	34.379442241306	1
2	631	34.779858241306	1
2	645	35.180274241306	1
2	660	35.810308227041	1
2	684	39.210724227041	1
2	698	39.611140227041	1
2	713	40.019203078629	1
2	728	40.427381521811	1
2	743	41.196425895639	1
2	757	41.596841895639	1
2	769	42.596841895639	1
2	788	43.997257895639	1
2	802	44.397673895639	1
2	814	45.397673895639	1
2	828	45.798089895639	1
2	842	46.198505895639	1
2	861	47.598921895639	1
2	875	47.999337895639	1
2	889	48.399753895639	1
2	903	48.800169895639	1
2	915	49.800169895639	1
2	929	50.200585895639	1
2	943	50.601001895639	1
2	957	51.001417895639	1
2	971	51.401833895639	1
2	991	52.980717991236	1
2	1015	56.381133991236	1
2	1029	56.781549991236	1
2	1048	58.181965991236	1
2	1062	58.582381991236	1
2	1074	59.582381991236	1
2	1088	59.982797991236	1
2	1102	60.383213991236	1
2	1114	61.383213991236	1
2	1126	63.383213991236	1
2	1140	63.783629991236	1
2	1154	64.184045991236	1
2	1168	64.584461991236	1
2	1182	64.984877991236	1
2	1194	65.984877991236	1
2	1208	66.385293991236	1
2	1222	66.785709991236	1
2	1241	68.186125991236	1
2	1255	68.586541991236	1
2	1274	69.986957991236	1
2	1293	71.387373991236	1
2	1307	71.787789991236	1
2	1321	72.188205991236	1
2	1335	72.588621991236	1
2	1349	72.989037991236	1
2	1363	73.389453991236	1
2	1378	73.965036995492	1
2	1398	75.430819670335	1
2	1412	75.831235670335	1
2	1426	76.231651670335	1
2	1440	76.632067670335	1
2	1454	77.032483670335	1
2	1473	78.432899670335	1
2	1485	80.432899670335	1
2	1504	81.833315670335	1
2	1521	85.833315670335	1
2	1535	86.233731670335	1
2	1549	86.634147670335	1
2	1563	87.034563670335	1
2	1578	87.734606407226	1
2	1590	88.734606407226	1
2	1604	89.135022407226	1
2	1618	89.535438407226	1
2	1632	89.935854407226	1
2	1646	90.336270407226	1
2	1658	91.336270407226	1
2	1682	94.736686407226	1
2	1701	96.137102407226	1
2	1718	100.137102407226	1
2	1732	100.537518407226	1
2	1751	101.937934407226	1
2	1765	102.338350407226	1
2	1779	102.738766407226	1
2	1793	103.139182407226	1
2	1812	104.539598407226	1
2	1826	104.940014407226	1
2	1845	106.340430407226	1
2	1859	106.740846407226	1
2	1873	107.141262407226	1
2	1885	108.141262407226	1
2	1904	109.541678407226	1
2	1918	109.942094407226	1
2	1932	110.342510407226	1
2	1946	110.742926407226	1
2	1960	111.143342407226	1
2	1977	114.143342407226	1
2	1991	114.543758407226	1
2	2008	117.543758407226	1
2	2022	117.944174407226	1
2	2037	119.016194477275	1
2	2049	120.016194477275	1
2	2063	120.416610477275	1
2	2077	120.817026477275	1
2	2091	121.217442477275	1
2	2105	121.617858477275	1
2	2124	123.018274477275	1
2	2138	123.418690477275	1
2	2152	123.819106477275	1
2	2166	124.219522477275	1
2	2178	125.219522477275	1
2	2192	125.619938477275	1
2	2206	126.020354477275	1
2	2225	127.420770477275	1
2	2237	129.420770477275	1
2	2256	130.821186477275	1
2	2275	132.221602477275	1
2	2289	132.622018477275	1
2	2303	133.022434477275	1
2	2315	134.022434477275	1
2	2329	134.422850477275	1
2	2358	139.823266477275	1
2	2377	141.223682477275	1
2	2391	141.624098477275	1
2	2410	143.024514477275	1
2	2422	145.024514477275	1
2	2436	145.424930477275	1
2	2450	145.825346477275	1
2	2462	146.825346477275	1
2	2476	147.225762477275	1
2	2490	147.626178477275	1
2	2519	153.026594477275	1
2	2533	153.427010477275	1
2	2552	154.827426477275	1
2	2566	155.227842477275	1
2	2581	155.977648769192	1
2	2596	156.39871302935	1
2	2610	156.79912902935	1
2	2624	157.19954502935	1
2	2639	157.951930486251	1
2	2653	158.352346486251	1
2	2667	158.752762486251	1
2	2681	159.153178486251	1
2	2695	159.553594486251	1
2	2709	159.954010486251	1
2	2723	160.354426486251	1
2	2737	160.754842486251	1
2	2751	161.155258486251	1
2	2771	162.93357251082	1
2	2785	163.33398851082	1
2	2799	163.73440451082	1
2	2811	164.73440451082	1
2	2825	165.13482051082	1
2	2844	166.53523651082	1
2	2858	166.93565251082	1
2	2872	167.33606851082	1
2	2886	167.73648451082	1
2	2898	168.73648451082	1
2	2917	170.13690051082	1
2	2931	170.53731651082	1
2	2951	172.038098867437	1
2	2970	173.438514867437	1
2	2984	173.838930867437	1
2	2996	174.838930867437	1
2	3010	175.239346867437	1
2	3024	175.639762867437	1
2	3038	176.040178867437	1
2	3053	176.440826971938	1
2	3067	176.841242971938	1
2	3079	177.841242971938	1
2	3093	178.241658971938	1
2	3107	178.642074971938	1
2	3119	179.642074971938	1
2	3133	180.042490971938	1
2	3145	181.042490971938	1
2	3159	181.442906971938	1
2	3174	181.95096787353	1
2	3186	182.95096787353	1
2	3205	184.35138387353	1
2	3217	186.35138387353	1
2	3231	186.75179987353	1
2	3246	187.281651059265	1
2	3260	187.682067059265	1
2	3272	188.682067059265	1
2	3286	189.082483059265	1
2	3298	190.082483059265	1
2	3310	192.082483059265	1
2	3324	192.482899059265	1
2	3338	192.883315059265	1
2	3357	194.283731059265	1
2	3371	194.684147059265	1
2	3385	195.084563059265	1
2	3402	198.084563059265	1
2	3416	198.484979059265	1
2	3435	199.885395059265	1
3	6	0.259274900913	0
3	20	0.659690900913	1
3	32	1.659690900913	2
3	44	3.659690900913	3
3	58	4.060106900913	4
3	72	4.460522900913	5
3	91	5.860938900913	6
3	105	6.261354900913	7
3	117	7.261354900913	8
3	131	7.661770900913	9
3	145	8.062186900913	10
3	159	8.462602900913	11
3	178	9.863018900913	12
3	192	10.263434900913	13
3	204	11.263434900913	14
3	218	11.663850900913	15
3	232	12.064266900913	16
3	246	12.464682900913	17
3	261	12.90938778532	18
3	275	13.30980378532	19
3	290	13.972786241306	20
3	304	14.373202241306	21
3	318	14.773618241306	22
3	342	18.174034241306	23
3	356	18.574450241306	24
3	368	19.574450241306	25
3	382	19.974866241306	26
3	394	20.974866241306	27
3	418	24.375282241306	28
3	432	24.775698241306	29
3	444	25.775698241306	30
3	458	26.176114241306	31
3	472	26.576530241306	32
3	484	27.576530241306	33
3	496	29.576530241306	34
3	510	29.976946241306	35
3	524	30.377362241306	36
3	536	31.377362241306	37
3	550	31.777778241306	38
3	564	32.178194241306	39
3	578	32.578610241306	40
3	592	32.979026241306	41
3	606	33.379442241306	42
3	618	34.379442241306	43
3	632	34.779858241306	44
3	646	35.180274241306	45
3	661	35.810308227041	46
3	685	39.210724227041	47
3	699	39.611140227041	48
3	714	40.019203078629	49
3	729	40.427381521811	50
3	744	41.196425895639	51
3	758	41.596841895639	52
3	770	42.596841895639	53
3	789	43.997257895639	54
3	803	44.397673895639	55
3	815	45.397673895639	56
3	829	45.798089895639	57
3	843	46.198505895639	58
3	862	47.598921895639	59
3	876	47.999337895639	60
3	890	48.399753895639	61
3	904	48.800169895639	62
3	916	49.800169895639	63
3	930	50.200585895639	64
3	944	50.601001895639	65
3	958	51.001417895639	66
3	972	51.401833895639	67
3	992	52.980717991236	68
3	1016	56.381133991236	69
3	1030	56.781549991236	70
3	1049	58.181965991236	71
3	1063	58.582381991236	72
3	1075	59.582381991236	73
3	1089	59.982797991236	74
3	1103	60.383213991236	75
3	1115	61.383213991236	76
3	1127	63.383213991236	77
3	1141	63.783629991236	78
3	1155	64.184045991236	79
3	1169	64.584461991236	80
3	1183	64.984877991236	81
3	1195	65.984877991236	82
3	1209	66.385293991236	83
3	1223	66.785709991236	84
3	1242	68.186125991236	85
3	1256	68.586541991236	86
3	1275	69.986957991236	87
3	1294	71.387373991236	88
3	1308	71.787789991236	89
3	1322	72.188205991236	90
3	1336	72.588621991236	91
3	1350	72.989037991236	92
3	1364	73.389453991236	93
3	1379	73.965036995492	94
3	1399	75.430819670335	95
3	1413	75.831235670335	96
3	1427	76.231651670335	97
3	1441	76.632067670335	98
3	1455	77.032483670335	99
3	1474	78.432899670335	100
3	1486	80.432899670335	101
3	1505	81.833315670335	102
3	1522	85.833315670335	103
3	1536	86.233731670335	104
3	1550	86.634147670335	105
3	1564	87.034563670335	106
3	1579	87.734606407226	107
3	1591	88.734606407226	108
3	1605	89.135022407226	109
3	1619	89.535438407226	110
3	1633	89.935854407226	111
3	1647	90.336270407226	112
3	1659	91.336270407226	113
3	1683	94.736686407226	114
3	1702	96.137102407226	115
3	1719	100.137102407226	116
3	1733	100.537518407226	117
3	1752	101.937934407226	118
3	1766	102.338350407226	119
3	1780	102.738766407226	120
3	1794	103.139182407226	121
3	1813	104.539598407226	122
3	1827	104.940014407226	123
3	1846	106.340430407226	124
3	1860	106.740846407226	125
3	1874	107.141262407226	126
3	1886	108.141262407226	127
3	1905	109.541678407226	128
3	1919	109.942094407226	129
3	1933	110.342510407226	130
3	1947	110.742926407226	131
3	1961	111.143342407226	132
3	1978	114.143342407226	133
3	1992	114.543758407226	134
3	2009	117.543758407226	135
3	2023	117.944174407226	136
3	2038	119.016194477275	137
3	2050	120.016194477275	138
3	2064	120.416610477275	139
3	2078	120.817026477275	140
3	2092	121.217442477275	141
3	2106	121.617858477275	142
3	2125	123.018274477275	143
3	2139	123.418690477275	144
3	2153	123.819106477275	145
3	2167	124.219522477275	146
3	2179	125.219522477275	147
3	2193	125.619938477275	148
3	2207	126.020354477275	149
3	2226	127.420770477275	150
3	2238	129.420770477275	151
3	2257	130.821186477275	152
3	2276	132.221602477275	153
3	2290	132.622018477275	154
3	2304	133.022434477275	155
3	2316	134.022434477275	156
3	2330	134.422850477275	157
3	2359	139.823266477275	158
3	2378	141.223682477275	159
3	2392	141.624098477275	160
3	2411	143.024514477275	161
3	2423	145.024514477275	162
3	2437	145.424930477275	163
3	2451	145.825346477275	164
3	2463	146.825346477275	165
3	2477	147.225762477275	166
3	2491	147.626178477275	167
3	2520	153.026594477275	168
3	2534	153.427010477275	169
3	2553	154.827426477275	170
3	2567	155.227842477275	171
3	2582	155.977648769192	172
3	2597	156.39871302935	173
3	2611	156.79912902935	174
3	2625	157.19954502935	175
3	2640	157.951930486251	176
3	2654	158.352346486251	177
3	2668	158.752762486251	178
3	2682	159.153178486251	179
3	2696	159.553594486251	180
3	2710	159.954010486251	181
3	2724	160.354426486251	182
3	2738	160.754842486251	183
3	2752	161.155258486251	184
3	2772	162.93357251082	185
3	2786	163.33398851082	186
3	2800	163.73440451082	187
3	2812	164.73440451082	188
3	2826	165.13482051082	189
3	2845	166.53523651082	190
3	2859	166.93565251082	191
3	2873	167.33606851082	192
3	2887	167.73648451082	193
3	2899	168.73648451082	194
3	2918	170.13690051082	195
3	2932	170.53731651082	196
3	2952	172.038098867437	197
3	2971	173.438514867437	198
3	2985	173.838930867437	199
3	2997	174.838930867437	200
3	3011	175.239346867437	201
3	3025	175.639762867437	202
3	3039	176.040178867437	203
3	3054	176.440826971938	204
3	3068	176.841242971938	205
3	3080	177.841242971938	206
3	3094	178.241658971938	207
3	3108	178.642074971938	208
3	3120	179.642074971938	209
3	3134	180.042490971938	210
3	3146	181.042490971938	211
3	3160	181.442906971938	212
3	3175	181.95096787353	213
3	3187	182.95096787353	214
3	3206	184.35138387353	215
3	3218	186.35138387353	216
3	3232	186.75179987353	217
3	3247	187.281651059265	218
3	3261	187.682067059265	219
3	3273	188.682067059265	220
3	3287	189.082483059265	221
3	3299	190.082483059265	222
3	3311	192.082483059265	223
3	3325	192.482899059265	224
3	3339	192.883315059265	225
3	3358	194.283731059265	226
3	3372	194.684147059265	227
3	3386	195.084563059265	228
3	3403	198.084563059265	229
3	3417	198.484979059265	230
3	3436	199.885395059265	231
4	8	0.459374900913	1
4	22	0.859790900913	1
4	34	1.859790900913	1
4	46	3.859790900913	1
4	60	4.260206900913	1
4	74	4.660622900913	1
4	93	6.061038900913	1
4	107	6.461454900913	1
4	119	7.461454900913	1
4	133	7.861870900913	1
4	147	8.262286900913	1
4	161	8.662702900913	1
4	180	10.063118900913	1
4	194	10.463534900913	1
4	206	11.463534900913	1
4	220	11.863950900913	1
4	234	12.264366900913	1
4	248	12.664782900913	1
4	263	13.10948778532	1
4	277	13.50990378532	1
4	292	14.172886241306	1
4	306	14.573302241306	1
4	320	14.973718241306	1
4	344	18.374134241306	1
4	358	18.774550241306	1
4	370	19.774550241306	1
4	384	20.174966241306	1
4	396	21.174966241306	1
4	420	24.575382241306	1
4	434	24.975798241306	1
4	446	25.975798241306	1
4	460	26.376214241306	1
4	474	26.776630241306	1
4	486	27.776630241306	1
4	498	29.776630241306	1
4	512	30.177046241306	1
4	526	30.577462241306	1
4	538	31.577462241306	1
4	552	31.977878241306	1
4	566	32.378294241306	1
4	580	32.778710241306	1
4	594	33.179126241306	1
4	608	33.579542241306	1
4	620	34.579542241306	1
4	634	34.979958241306	1
4	648	35.380374241306	1
4	663	36.010408227041	1
4	687	39.410824227041	1
4	701	39.811240227041	1
4	716	40.219303078629	1
4	731	40.627481521811	1
4	746	41.396525895639	1
4	760	41.796941895639	1
4	772	42.796941895639	1
4	791	44.197357895639	1
4	805	44.597773895639	1
4	817	45.597773895639	1
4	831	45.998189895639	1
4	845	46.398605895639	1
4	864	47.799021895639	1
4	878	48.199437895639	1
4	892	48.599853895639	1
4	906	49.000269895639	1
4	918	50.000269895639	1
4	932	50.400685895639	1
4	946	50.801101895639	1
4	960	51.201517895639	1
4	974	51.601933895639	1
4	994	53.180817991236	1
4	1018	56.581233991236	1
4	1032	56.981649991236	1
4	1051	58.382065991236	1
4	1065	58.782481991236	1
4	1077	59.782481991236	1
4	1091	60.182897991236	1
4	1105	60.583313991236	1
4	1117	61.583313991236	1
4	1129	63.583313991236	1
4	1143	63.983729991236	1
4	1157	64.384145991236	1
4	1171	64.784561991236	1
4	1185	65.184977991236	1
4	1197	66.184977991236	1
4	1211	66.585393991236	1
4	1225	66.985809991236	1
4	1244	68.386225991236	1
4	1258	68.786641991236	1
4	1277	70.187057991236	1
4	1296	71.587473991236	1
4	1310	71.987889991236	1
4	1324	72.388305991236	1
4	1338	72.788721991236	1
4	1352	73.189137991236	1
4	1366	73.589553991236	1
4	1381	74.165136995492	1
4	1401	75.630919670335	1
4	1415	76.031335670335	1
4	1429	76.431751670335	1
4	1443	76.832167670335	1
4	1457	77.232583670335	1
4	1476	78.632999670335	1
4	1488	80.632999670335	1
4	1507	82.033415670335	1
4	1524	86.033415670335	1
4	1538	86.433831670335	1
4	1552	86.834247670335	1
4	1566	87.234663670335	1
4	1581	87.934706407226	1
4	1593	88.934706407226	1
4	1607	89.335122407226	1
4	1621	89.735538407226	1
4	1635	90.135954407226	1
4	1649	90.536370407226	1
4	1661	91.536370407226	1
4	1685	94.936786407226	1
4	1704	96.337202407226	1
4	1721	100.337202407226	1
4	1735	100.737618407226	1
4	1754	102.138034407226	1
4	1768	102.538450407226	1
4	1782	102.938866407226	1
4	1796	103.339282407226	1
4	1815	104.739698407226	1
4	1829	105.140114407226	1
4	1848	106.540530407226	1
4	1862	106.940946407226	1
4	1876	107.341362407226	1
4	1888	108.341362407226	1
4	1907	109.741778407226	1
4	1921	110.142194407226	1
4	1935	110.542610407226	1
4	1949	110.943026407226	1
4	1963	111.343442407226	1
4	1980	114.343442407226	1
4	1994	114.743858407226	1
4	2011	117.743858407226	1
4	2025	118.144274407226	1
4	2040	119.216294477275	1
4	2052	120.216294477275	1
4	2066	120.616710477275	1
4	2080	121.017126477275	1
4	2094	121.417542477275	1
4	2108	121.817958477275	1
4	2127	123.218374477275	1
4	2141	123.618790477275	1
4	2155	124.019206477275	1
4	2169	124.419622477275	1
4	2181	125.419622477275	1
4	2195	125.820038477275	1
4	2209	126.220454477275	1
4	2228	127.620870477275	1
4	2240	129.620870477275	1
4	2259	131.021286477275	1
4	2278	132.421702477275	1
4	2292	132.822118477275	1
4	2306	133.222534477275	1
4	2318	134.222534477275	1
4	2332	134.622950477275	1
4	2361	140.023366477275	1
4	2380	141.423782477275	1
4	2394	141.824198477275	1
4	2413	143.224614477275	1
4	2425	145.224614477275	1
4	2439	145.625030477275	1
4	2453	146.025446477275	1
4	2465	147.025446477275	1
4	2479	147.425862477275	1
4	2493	147.826278477275	1
4	2522	153.226694477275	1
4	2536	153.627110477275	1
4	2555	155.027526477275	1
4	2569	155.427942477275	1
4	2584	156.177748769192	1
4	2599	156.59881302935	1
4	2613	156.99922902935	1
4	2627	157.39964502935	1
4	2642	158.152030486251	1
4	2656	158.552446486251	1
4	2670	158.952862486251	1
4	2684	159.353278486251	1
4	2698	159.753694486251	1
4	2712	160.154110486251	1
4	2726	160.554526486251	1
4	2740	160.954942486251	1
4	2754	161.355358486251	1
4	2774	163.13367251082	1
4	2788	163.53408851082	1
4	2802	163.93450451082	1
4	2814	164.93450451082	1
4	2828	165.33492051082	1
4	2847	166.73533651082	1
4	2861	167.13575251082	1
4	2875	167.53616851082	1
4	2889	167.93658451082	1
4	2901	168.93658451082	1
4	2920	170.33700051082	1
4	2934	170.73741651082	1
4	2954	172.238198867437	1
4	2973	173.638614867437	1
4	2987	174.039030867437	1
4	2999	175.039030867437	1
4	3013	175.439446867437	1
4	3027	175.839862867437	1
4	3041	176.240278867437	1
4	3056	176.640926971938	1
4	3070	177.041342971938	1
4	3082	178.041342971938	1
4	3096	178.441758971938	1
4	3110	178.842174971938	1
4	3122	179.842174971938	1
4	3136	180.242590971938	1
4	3148	181.242590971938	1
4	3162	181.643006971938	1
4	3177	182.15106787353	1
4	3189	183.15106787353	1
4	3208	184.55148387353	1
4	3220	186.55148387353	1
4	3234	186.95189987353	1
4	3249	187.481751059265	1
4	3263	187.882167059265	1
4	3275	188.882167059265	1
4	3289	189.282583059265	1
4	3301	190.282583059265	1
4	3313	192.282583059265	1
4	3327	192.682999059265	1
4	3341	193.083415059265	1
4	3360	194.483831059265	1
4	3374	194.884247059265	1
4	3388	195.284663059265	1
4	3405	198.284663059265	1
4	3419	198.685079059265	1
5	9	0.459374900913	0
5	23	0.859790900913	1
5	35	1.859790900913	2
5	47	3.859790900913	3
5	61	4.260206900913	4
5	75	4.660622900913	5
5	94	6.061038900913	6
5	108	6.461454900913	7
5	120	7.461454900913	8
5	134	7.861870900913	9
5	148	8.262286900913	10
5	162	8.662702900913	11
5	181	10.063118900913	12
5	195	10.463534900913	13
5	207	11.463534900913	14
5	221	11.863950900913	15
5	235	12.264366900913	16
5	249	12.664782900913	17
5	264	13.10948778532	18
5	278	13.50990378532	19
5	293	14.172886241306	20
5	307	14.573302241306	21
5	321	14.973718241306	22
5	345	18.374134241306	23
5	359	18.774550241306	24
5	371	19.774550241306	25
5	385	20.174966241306	26
5	397	21.174966241306	27
5	421	24.575382241306	28
5	435	24.975798241306	29
5	447	25.975798241306	30
5	461	26.376214241306	31
5	475	26.776630241306	32
5	487	27.776630241306	33
5	499	29.776630241306	34
5	513	30.177046241306	35
5	527	30.577462241306	36
5	539	31.577462241306	37
5	553	31.977878241306	38
5	567	32.378294241306	39
5	581	32.778710241306	40
5	595	33.179126241306	41
5	609	33.579542241306	42
5	621	34.579542241306	43
5	635	34.979958241306	44
5	649	35.380374241306	45
5	664	36.010408227041	46
5	688	39.410824227041	47
5	702	39.811240227041	48
5	717	40.219303078629	49
5	732	40.627481521811	50
5	747	41.396525895639	51
5	761	41.796941895639	52
5	773	42.796941895639	53
5	792	44.197357895639	54
5	806	44.597773895639	55
5	818	45.597773895639	56
5	832	45.998189895639	57
5	846	46.398605895639	58
5	865	47.799021895639	59
5	879	48.199437895639	60
5	893	48.599853895639	61
5	907	49.000269895639	62
5	919	50.000269895639	63
5	933	50.400685895639	64
5	947	50.801101895639	65
5	961	51.201517895639	66
5	975	51.601933895639	67
5	995	53.180817991236	68
5	1019	56.581233991236	69
5	1033	56.981649991236	70
5	1052	58.382065991236	71
5	1066	58.782481991236	72
5	1078	59.782481991236	73
5	1092	60.182897991236	74
5	1106	60.583313991236	75
5	1118	61.583313991236	76
5	1130	63.583313991236	77
5	1144	63.983729991236	78
5	1158	64.384145991236	79
5	1172	64.784561991236	80
5	1186	65.184977991236	81
5	1198	66.184977991236	82
5	1212	66.585393991236	83
5	1226	66.985809991236	84
5	1245	68.386225991236	85
5	1259	68.786641991236	86
5	1278	70.187057991236	87
5	1297	71.587473991236	88
5	1311	71.987889991236	89
5	1325	72.388305991236	90
5	1339	72.788721991236	91
5	1353	73.189137991236	92
5	1367	73.589553991236	93
5	1382	74.165136995492	94
5	1402	75.630919670335	95
5	1416	76.031335670335	96
5	1430	76.431751670335	97
5	1444	76.832167670335	98
5	1458	77.232583670335	99
5	1477	78.632999670335	100
5	1489	80.632999670335	101
5	1508	82.033415670335	102
5	1525	86.033415670335	103
5	1539	86.433831670335	104
5	1553	86.834247670335	105
5	1567	87.234663670335	106
5	1582	87.934706407226	107
5	1594	88.934706407226	108
5	1608	89.335122407226	109
5	1622	89.735538407226	110
5	1636	90.135954407226	111
5	1650	90.536370407226	112
5	1662	91.536370407226	113
5	1686	94.936786407226	114
5	1705	96.337202407226	115
5	1722	100.337202407226	116
5	1736	100.737618407226	117
5	1755	102.138034407226	118
5	1769	102.538450407226	119
5	1783	102.938866407226	120
5	1797	103.339282407226	121
5	1816	104.739698407226	122
5	1830	105.140114407226	123
5	1849	106.540530407226	124
5	1863	106.940946407226	125
5	1877	107.341362407226	126
5	1889	108.341362407226	127
5	1908	109.741778407226	128
5	1922	110.142194407226	129
5	1936	110.542610407226	130
5	1950	110.943026407226	131
5	1964	111.343442407226	132
5	1981	114.343442407226	133
5	1995	114.743858407226	134
5	2012	117.743858407226	135
5	2026	118.144274407226	136
5	2041	119.216294477275	137
5	2053	120.216294477275	138
5	2067	120.616710477275	139
5	2081	121.017126477275	140
5	2095	121.417542477275	141
5	2109	121.817958477275	142
5	2128	123.218374477275	143
5	2142	123.618790477275	144
5	2156	124.019206477275	145
5	2170	124.419622477275	146
5	2182	125.419622477275	147
5	2196	125.820038477275	148
5	2210	126.220454477275	149
5	2229	127.620870477275	150
5	2241	129.620870477275	151
5	2260	131.021286477275	152
5	2279	132.421702477275	153
5	2293	132.822118477275	154
5	2307	133.222534477275	155
5	2319	134.222534477275	156
5	2333	134.622950477275	157
5	2362	140.023366477275	158
5	2381	141.423782477275	159
5	2395	141.824198477275	160
5	2414	143.224614477275	161
5	2426	145.224614477275	162
5	2440	145.625030477275	163
5	2454	146.025446477275	164
5	2466	147.025446477275	165
5	2480	147.425862477275	166
5	2494	147.826278477275	167
5	2523	153.226694477275	168
5	2537	153.627110477275	169
5	2556	155.027526477275	170
5	2570	155.427942477275	171
5	2585	156.177748769192	172
5	2600	156.59881302935	173
5	2614	156.99922902935	174
5	2628	157.39964502935	175
5	2643	158.152030486251	176
5	2657	158.552446486251	177
5	2671	158.952862486251	178
5	2685	159.353278486251	179
5	2699	159.753694486251	180
5	2713	160.154110486251	181
5	2727	160.554526486251	182
5	2741	160.954942486251	183
5	2755	161.355358486251	184
5	2775	163.13367251082	185
5	2789	163.53408851082	186
5	2803	163.93450451082	187
5	2815	164.93450451082	188
5	2829	165.33492051082	189
5	2848	166.73533651082	190
5	2862	167.13575251082	191
5	2876	167.53616851082	192
5	2890	167.93658451082	193
5	2902	168.93658451082	194
5	2921	170.33700051082	195
5	2935	170.73741651082	196
5	2955	172.238198867437	197
5	2974	173.638614867437	198
5	2988	174.039030867437	199
5	3000	175.039030867437	200
5	3014	175.439446867437	201
5	3028	175.839862867437	202
5	3042	176.240278867437	203
5	3057	176.640926971938	204
5	3071	177.041342971938	205
5	3083	178.041342971938	206
5	3097	178.441758971938	207
5	3111	178.842174971938	208
5	3123	179.842174971938	209
5	3137	180.242590971938	210
5	3149	181.242590971938	211
5	3163	181.643006971938	212
5	3178	182.15106787353	213
5	3190	183.15106787353	214
5	3209	184.55148387353	215
5	3221	186.55148387353	216
5	3235	186.95189987353	217
5	3250	187.481751059265	218
5	3264	187.882167059265	219
5	3276	188.882167059265	220
5	3290	189.282583059265	221
5	3302	190.282583059265	222
5	3314	192.282583059265	223
5	3328	192.682999059265	224
5	3342	193.083415059265	225
5	3361	194.483831059265	226
5	3375	194.884247059265	227
5	3389	195.284663059265	228
5	3406	198.284663059265	229
5	3420	198.685079059265	230
6	10	0.559374900913	0.4002
6	24	0.959790900913	0.4002
6	62	4.360206900913	0.4002
6	76	4.760622900913	0.4002
6	95	6.161038900913	1.4002
6	109	6.561454900913	0.4002
6	135	7.961870900913	0.4002
6	149	8.362286900913	0.4002
6	163	8.762702900913	0.4002
6	182	10.163118900913	1.4002
6	196	10.563534900913	0.4002
6	222	11.963950900913	0.4002
6	236	12.364366900913	0.4002
6	250	12.764782900913	0.4002
6	265	13.20948778532	0.4002
6	279	13.60990378532	0.4002
6	294	14.272886241306	0.4002
6	308	14.673302241306	0.4002
6	322	15.073718241306	0.4002
6	346	18.474134241306	3.4002
6	360	18.874550241306	0.4002
6	386	20.274966241306	0.4002
6	422	24.675382241306	3.4002
6	436	25.075798241306	0.4002
6	462	26.476214241306	0.4002
6	476	26.876630241306	0.4002
6	514	30.277046241306	0.4002
6	528	30.677462241306	0.4002
6	554	32.077878241306	0.4002
6	568	32.478294241306	0.4002
6	582	32.878710241306	0.4002
6	596	33.279126241306	0.4002
6	610	33.679542241306	0.4002
6	636	35.079958241306	0.4002
6	650	35.480374241306	0.4002
6	665	36.110408227041	0.4002
6	689	39.510824227041	3.4002
6	703	39.911240227041	0.4002
6	718	40.319303078629	0.4002
6	733	40.727481521811	0.4002
6	748	41.496525895639	0.4002
6	762	41.896941895639	0.4002
6	793	44.297357895639	1.4002
6	807	44.697773895639	0.4002
6	833	46.098189895639	0.4002
6	847	46.498605895639	0.4002
6	866	47.899021895639	1.4002
6	880	48.299437895639	0.4002
6	894	48.699853895639	0.4002
6	908	49.100269895639	0.4002
6	934	50.500685895639	0.4002
6	948	50.901101895639	0.4002
6	962	51.301517895639	0.4002
6	976	51.701933895639	0.4002
6	996	53.280817991236	1.4002
6	1020	56.681233991236	3.4002
6	1034	57.081649991236	0.4002
6	1053	58.482065991236	1.4002
6	1067	58.882481991236	0.4002
6	1093	60.282897991236	0.4002
6	1107	60.683313991236	0.4002
6	1145	64.083729991236	0.4002
6	1159	64.484145991236	0.4002
6	1173	64.884561991236	0.4002
6	1187	65.284977991236	0.4002
6	1213	66.685393991236	0.4002
6	1227	67.085809991236	0.4002
6	1246	68.486225991236	1.4002
6	1260	68.886641991236	0.4002
6	1279	70.287057991236	1.4002
6	1298	71.687473991236	1.4002
6	1312	72.087889991236	0.4002
6	1326	72.488305991236	0.4002
6	1340	72.888721991236	0.4002
6	1354	73.289137991236	0.4002
6	1368	73.689553991236	0.4002
6	1383	74.265136995492	0.4002
6	1403	75.730919670335	1.4002
6	1417	76.131335670335	0.4002
6	1431	76.531751670335	0.4002
6	1445	76.932167670335	0.4002
6	1459	77.332583670335	0.4002
6	1478	78.732999670335	1.4002
6	1509	82.133415670335	1.4002
6	1540	86.533831670335	0.4002
6	1554	86.934247670335	0.4002
6	1568	87.334663670335	0.4002
6	1583	88.034706407226	0.4002
6	1609	89.435122407226	0.4002
6	1623	89.835538407226	0.4002
6	1637	90.235954407226	0.4002
6	1651	90.636370407226	0.4002
6	1687	95.036786407226	3.4002
6	1706	96.437202407226	1.4002
6	1737	100.837618407226	0.4002
6	1756	102.238034407226	1.4002
6	1770	102.638450407226	0.4002
6	1784	103.038866407226	0.4002
6	1798	103.439282407226	0.4002
6	1817	104.839698407226	1.4002
6	1831	105.240114407226	0.4002
6	1850	106.640530407226	1.4002
6	1864	107.040946407226	0.4002
6	1878	107.441362407226	0.4002
6	1909	109.841778407226	1.4002
6	1923	110.242194407226	0.4002
6	1937	110.642610407226	0.4002
6	1951	111.043026407226	0.4002
6	1965	111.443442407226	0.4002
6	1996	114.843858407226	0.4002
6	2027	118.244274407226	0.4002
6	2042	119.316294477275	0.4002
6	2068	120.716710477275	0.4002
6	2082	121.117126477275	0.4002
6	2096	121.517542477275	0.4002
6	2110	121.917958477275	0.4002
6	2129	123.318374477275	1.4002
6	2143	123.718790477275	0.4002
6	2157	124.119206477275	0.4002
6	2171	124.519622477275	0.4002
6	2197	125.920038477275	0.4002
6	2211	126.320454477275	0.4002
6	2230	127.720870477275	1.4002
6	2261	131.121286477275	1.4002
6	2280	132.521702477275	1.4002
6	2294	132.922118477275	0.4002
6	2308	133.322534477275	0.4002
6	2334	134.722950477275	0.4002
6	2363	140.123366477275	5.4002
6	2382	141.523782477275	1.4002
6	2396	141.924198477275	0.4002
6	2415	143.324614477275	1.4002
6	2441	145.725030477275	0.4002
6	2455	146.125446477275	0.4002
6	2481	147.525862477275	0.4002
6	2495	147.926278477275	0.4002
6	2524	153.326694477275	5.4002
6	2538	153.727110477275	0.4002
6	2557	155.127526477275	1.4002
6	2571	155.527942477275	0.4002
6	2586	156.277748769192	0.4002
6	2601	156.69881302935	0.4002
6	2615	157.09922902935	0.4002
6	2629	157.49964502935	0.4002
6	2644	158.252030486251	0.4002
6	2658	158.652446486251	0.4002
6	2672	159.052862486251	0.4002
6	2686	159.453278486251	0.4002
6	2700	159.853694486251	0.4002
6	2714	160.254110486251	0.4002
6	2728	160.654526486251	0.4002
6	2742	161.054942486251	0.4002
6	2756	161.455358486251	0.4002
6	2776	163.23367251082	1.4002
6	2790	163.63408851082	0.4002
6	2804	164.03450451082	0.4002
6	2830	165.43492051082	0.4002
6	2849	166.83533651082	1.4002
6	2863	167.23575251082	0.4002
6	2877	167.63616851082	0.4002
6	2891	168.03658451082	0.4002
6	2922	170.43700051082	1.4002
6	2936	170.83741651082	0.4002
6	2956	172.338198867437	1.4002
6	2975	173.738614867437	1.4002
6	2989	174.139030867437	0.4002
6	3015	175.539446867437	0.4002
6	3029	175.939862867437	0.4002
6	3043	176.340278867437	0.4002
6	3058	176.740926971938	0.4002
6	3072	177.141342971938	0.4002
6	3098	178.541758971938	0.4002
6	3112	178.942174971938	0.4002
6	3138	180.342590971938	0.4002
6	3164	181.743006971938	0.4002
6	3179	182.25106787353	0.4002
6	3210	184.65148387353	1.4002
6	3236	187.05189987353	0.4002
6	3251	187.581751059265	0.4002
6	3265	187.982167059265	0.4002
6	3291	189.382583059265	0.4002
6	3329	192.782999059265	0.4002
6	3343	193.183415059265	0.4002
6	3362	194.583831059265	1.4002
6	3376	194.984247059265	0.4002
6	3390	195.384663059265	0.4002
6	3421	198.785079059265	0.4002
7	12	0.559482900913	1
7	50	3.959898900913	1
7	64	4.360314900913	1
7	78	4.760730900913	1
7	97	6.161146900913	1
7	123	7.561562900913	1
7	137	7.961978900913	1
7	151	8.362394900913	1
7	165	8.762810900913	1
7	184	10.163226900913	1
7	210	11.563642900913	1
7	224	11.964058900913	1
7	238	12.364474900913	1
7	252	12.764890900913	1
7	267	13.20959578532	1
7	281	13.61001178532	1
7	296	14.272994241306	1
7	310	14.673410241306	1
7	324	15.073826241306	1
7	348	18.474242241306	1
7	374	19.874658241306	1
7	400	21.275074241306	1
7	424	24.675490241306	1
7	450	26.075906241306	1
7	464	26.476322241306	1
7	502	29.876738241306	1
7	516	30.277154241306	1
7	542	31.677570241306	1
7	556	32.077986241306	1
7	570	32.478402241306	1
7	584	32.878818241306	1
7	598	33.279234241306	1
7	624	34.679650241306	1
7	638	35.080066241306	1
7	652	35.480482241306	1
7	667	36.110516227041	1
7	691	39.510932227041	1
7	705	39.911348227041	1
7	720	40.319411078629	1
7	735	40.727589521811	1
7	750	41.496633895639	1
7	776	42.897049895639	1
7	795	44.297465895639	1
7	821	45.697881895639	1
7	835	46.098297895639	1
7	849	46.498713895639	1
7	868	47.899129895639	1
7	882	48.299545895639	1
7	896	48.699961895639	1
7	922	50.100377895639	1
7	936	50.500793895639	1
7	950	50.901209895639	1
7	964	51.301625895639	1
7	978	51.702041895639	1
7	998	53.280925991236	1
7	1022	56.681341991236	1
7	1036	57.081757991236	1
7	1055	58.482173991236	1
7	1081	59.882589991236	1
7	1095	60.283005991236	1
7	1133	63.683421991236	1
7	1147	64.083837991236	1
7	1161	64.484253991236	1
7	1175	64.884669991236	1
7	1201	66.285085991236	1
7	1215	66.685501991236	1
7	1229	67.085917991236	1
7	1248	68.486333991236	1
7	1262	68.886749991236	1
7	1281	70.287165991236	1
7	1300	71.687581991236	1
7	1314	72.087997991236	1
7	1328	72.488413991236	1
7	1342	72.888829991236	1
7	1356	73.289245991236	1
7	1370	73.689661991236	1
7	1385	74.265244995492	1
7	1405	75.731027670335	1
7	1419	76.131443670335	1
7	1433	76.531859670335	1
7	1447	76.932275670335	1
7	1461	77.332691670335	1
7	1492	80.733107670335	1
7	1528	86.133523670335	1
7	1542	86.533939670335	1
7	1556	86.934355670335	1
7	1570	87.334771670335	1
7	1597	89.034814407226	1
7	1611	89.435230407226	1
7	1625	89.835646407226	1
7	1639	90.236062407226	1
7	1665	91.636478407226	1
7	1689	95.036894407226	1
7	1725	100.437310407226	1
7	1739	100.837726407226	1
7	1758	102.238142407226	1
7	1772	102.638558407226	1
7	1786	103.038974407226	1
7	1800	103.439390407226	1
7	1819	104.839806407226	1
7	1833	105.240222407226	1
7	1852	106.640638407226	1
7	1866	107.041054407226	1
7	1892	108.441470407226	1
7	1911	109.841886407226	1
7	1925	110.242302407226	1
7	1939	110.642718407226	1
7	1953	111.043134407226	1
7	1984	114.443550407226	1
7	2015	117.843966407226	1
7	2029	118.244382407226	1
7	2056	120.316402477275	1
7	2070	120.716818477275	1
7	2084	121.117234477275	1
7	2098	121.517650477275	1
7	2112	121.918066477275	1
7	2131	123.318482477275	1
7	2145	123.718898477275	1
7	2159	124.119314477275	1
7	2185	125.519730477275	1
7	2199	125.920146477275	1
7	2213	126.320562477275	1
7	2244	129.720978477275	1
7	2263	131.121394477275	1
7	2282	132.521810477275	1
7	2296	132.922226477275	1
7	2322	134.322642477275	1
7	2336	134.723058477275	1
7	2365	140.123474477275	1
7	2384	141.523890477275	1
7	2398	141.924306477275	1
7	2429	145.324722477275	1
7	2443	145.725138477275	1
7	2469	147.125554477275	1
7	2483	147.525970477275	1
7	2497	147.926386477275	1
7	2526	153.326802477275	1
7	2540	153.727218477275	1
7	2559	155.127634477275	1
7	2573	155.528050477275	1
7	2588	156.277856769192	1
7	2603	156.69892102935	1
7	2617	157.09933702935	1
7	2631	157.49975302935	1
7	2646	158.252138486251	1
7	2660	158.652554486251	1
7	2674	159.052970486251	1
7	2688	159.453386486251	1
7	2702	159.853802486251	1
7	2716	160.254218486251	1
7	2730	160.654634486251	1
7	2744	161.055050486251	1
7	2758	161.455466486251	1
7	2778	163.23378051082	1
7	2792	163.63419651082	1
7	2818	165.03461251082	1
7	2832	165.43502851082	1
7	2851	166.83544451082	1
7	2865	167.23586051082	1
7	2879	167.63627651082	1
7	2905	169.03669251082	1
7	2924	170.43710851082	1
7	2938	170.83752451082	1
7	2958	172.338306867437	1
7	2977	173.738722867437	1
7	3003	175.139138867437	1
7	3017	175.539554867437	1
7	3031	175.939970867437	1
7	3045	176.340386867437	1
7	3060	176.741034971938	1
7	3086	178.141450971938	1
7	3100	178.541866971938	1
7	3126	179.942282971938	1
7	3152	181.342698971938	1
7	3166	181.743114971938	1
7	3193	183.25117587353	1
7	3224	186.65159187353	1
7	3238	187.05200787353	1
7	3253	187.581859059265	1
7	3279	188.982275059265	1
7	3317	192.382691059265	1
7	3331	192.783107059265	1
7	3345	193.183523059265	1
7	3364	194.583939059265	1
7	3378	194.984355059265	1
7	3409	198.384771059265	1
7	3423	198.785187059265	1
8	13	0.559482900913	0
8	51	3.959898900913	1
8	65	4.360314900913	2
8	79	4.760730900913	3
8	98	6.161146900913	4
8	124	7.561562900913	5
8	138	7.961978900913	6
8	152	8.362394900913	7
8	166	8.762810900913	8
8	185	10.163226900913	9
8	211	11.563642900913	10
8	225	11.964058900913	11
8	239	12.364474900913	12
8	253	12.764890900913	13
8	268	13.20959578532	14
8	282	13.61001178532	15
8	297	14.272994241306	16
8	311	14.673410241306	17
8	325	15.073826241306	18
8	349	18.474242241306	19
8	375	19.874658241306	20
8	401	21.275074241306	21
8	425	24.675490241306	22
8	451	26.075906241306	23
8	465	26.476322241306	24
8	503	29.876738241306	25
8	517	30.277154241306	26
8	543	31.677570241306	27
8	557	32.077986241306	28
8	571	32.478402241306	29
8	585	32.878818241306	30
8	599	33.279234241306	31
8	625	34.679650241306	32
8	639	35.080066241306	33
8	653	35.480482241306	34
8	668	36.110516227041	35
8	692	39.510932227041	36
8	706	39.911348227041	37
8	721	40.319411078629	38
8	736	40.727589521811	39
8	751	41.496633895639	40
8	777	42.897049895639	41
8	796	44.297465895639	42
8	822	45.697881895639	43
8	836	46.098297895639	44
8	850	46.498713895639	45
8	869	47.899129895639	46
8	883	48.299545895639	47
8	897	48.699961895639	48
8	923	50.100377895639	49
8	937	50.500793895639	50
8	951	50.901209895639	51
8	965	51.301625895639	52
8	979	51.702041895639	53
8	999	53.280925991236	54
8	1023	56.681341991236	55
8	1037	57.081757991236	56
8	1056	58.482173991236	57
8	1082	59.882589991236	58
8	1096	60.283005991236	59
8	1134	63.683421991236	60
8	1148	64.083837991236	61
8	1162	64.484253991236	62
8	1176	64.884669991236	63
8	1202	66.285085991236	64
8	1216	66.685501991236	65
8	1230	67.085917991236	66
8	1249	68.486333991236	67
8	1263	68.886749991236	68
8	1282	70.287165991236	69
8	1301	71.687581991236	70
8	1315	72.087997991236	71
8	1329	72.488413991236	72
8	1343	72.888829991236	73
8	1357	73.289245991236	74
8	1371	73.689661991236	75
8	1386	74.265244995492	76
8	1406	75.731027670335	77
8	1420	76.131443670335	78
8	1434	76.531859670335	79
8	1448	76.932275670335	80
8	1462	77.332691670335	81
8	1493	80.733107670335	82
8	1529	86.133523670335	83
8	1543	86.533939670335	84
8	1557	86.934355670335	85
8	1571	87.334771670335	86
8	1598	89.034814407226	87
8	1612	89.435230407226	88
8	1626	89.835646407226	89
8	1640	90.236062407226	90
8	1666	91.636478407226	91
8	1690	95.036894407226	92
8	1726	100.437310407226	93
8	1740	100.837726407226	94
8	1759	102.238142407226	95
8	1773	102.638558407226	96
8	1787	103.038974407226	97
8	1801	103.439390407226	98
8	1820	104.839806407226	99
8	1834	105.240222407226	100
8	1853	106.640638407226	101
8	1867	107.041054407226	102
8	1893	108.441470407226	103
8	1912	109.841886407226	104
8	1926	110.242302407226	105
8	1940	110.642718407226	106
8	1954	111.043134407226	107
8	1985	114.443550407226	108
8	2016	117.843966407226	109
8	2030	118.244382407226	110
8	2057	120.316402477275	111
8	2071	120.716818477275	112
8	2085	121.117234477275	113
8	2099	121.517650477275	114
8	2113	121.918066477275	115
8	2132	123.318482477275	116
8	2146	123.718898477275	117
8	2160	124.119314477275	118
8	2186	125.519730477275	119
8	2200	125.920146477275	120
8	2214	126.320562477275	121
8	2245	129.720978477275	122
8	2264	131.121394477275	123
8	2283	132.521810477275	124
8	2297	132.922226477275	125
8	2323	134.322642477275	126
8	2337	134.723058477275	127
8	2366	140.123474477275	128
8	2385	141.523890477275	129
8	2399	141.924306477275	130
8	2430	145.324722477275	131
8	2444	145.725138477275	132
8	2470	147.125554477275	133
8	2484	147.525970477275	134
8	2498	147.926386477275	135
8	2527	153.326802477275	136
8	2541	153.727218477275	137
8	2560	155.127634477275	138
8	2574	155.528050477275	139
8	2589	156.277856769192	140
8	2604	156.69892102935	141
8	2618	157.09933702935	142
8	2632	157.49975302935	143
8	2647	158.252138486251	144
8	2661	158.652554486251	145
8	2675	159.052970486251	146
8	2689	159.453386486251	147
8	2703	159.853802486251	148
8	2717	160.254218486251	149
8	2731	160.654634486251	150
8	2745	161.055050486251	151
8	2759	161.455466486251	152
8	2779	163.23378051082	153
8	2793	163.63419651082	154
8	2819	165.03461251082	155
8	2833	165.43502851082	156
8	2852	166.83544451082	157
8	2866	167.23586051082	158
8	2880	167.63627651082	159
8	2906	169.03669251082	160
8	2925	170.43710851082	161
8	2939	170.83752451082	162
8	2959	172.338306867437	163
8	2978	173.738722867437	164
8	3004	175.139138867437	165
8	3018	175.539554867437	166
8	3032	175.939970867437	167
8	3046	176.340386867437	168
8	3061	176.741034971938	169
8	3087	178.141450971938	170
8	3101	178.541866971938	171
8	3127	179.942282971938	172
8	3153	181.342698971938	173
8	3167	181.743114971938	174
8	3194	183.25117587353	175
8	3225	186.65159187353	176
8	3239	187.05200787353	177
8	3254	187.581859059265	178
8	3280	188.982275059265	179
8	3318	192.382691059265	180
8	3332	192.783107059265	181
8	3346	193.183523059265	182
8	3365	194.583939059265	183
8	3379	194.984355059265	184
8	3410	198.384771059265	185
8	3424	198.785187059265	186

