version 2
run General-0-20220530-08:25:26-14848
attr configname General
attr datetime 20220530-08:25:26
attr experiment General
attr inifile omnetpp.ini
attr iterationvars ""
attr iterationvarsf ""
attr measurement ""
attr network Network
attr processid 14848
attr repetition 0
attr replication #0
attr resultdir results
attr runnumber 0
attr seedset 0
param Network.nodeTx.gen.generationInterval exponential(0.5)
param Network.**.serviceTime exponential(0.001)
param Network.nodeTx.gen.packetByteSize 12500
param Network.queue.bufferSize 200
param Network.nodeTx.queue.bufferSize 2000000
param Network.nodeRx.queue.bufferSize 200
param Network.confirmQueue.bufferSize 200

vector 0 Network.nodeTx.queue bufferSize ETV
vector 1 Network.nodeTx.queue packetsSend ETV
vector 2 Network.queue bufferSize ETV
vector 3 Network.queue packetsSend ETV
vector 4 Network.nodeRx.queue bufferSize ETV
vector 5 Network.nodeRx.queue packetsSend ETV
vector 6 Network.nodeRx.sink Delay ETV
vector 7 Network.confirmQueue bufferSize ETV
vector 8 Network.confirmQueue packetsSend ETV
0	2	0.397937252283	1
0	17	0.847217446525	1
0	32	1.475182825549	1
0	47	2.404984931586	1
0	62	2.866596497321	1
0	77	3.842369165263	1
0	91	4.242785165263	1
0	106	5.182267192364	1
0	120	5.582683192364	1
0	135	6.071186405561	1
0	150	6.590266055893	1
0	164	6.990682055893	1
0	178	7.391098055893	1
0	192	7.791514055893	1
0	207	8.903276266911	1
0	221	9.303692266911	1
0	236	10.961148406875	1
0	250	11.361564406875	1
0	264	11.761980406875	1
0	278	12.162396406875	1
0	293	12.946844465687	1
0	308	13.782950065849	1
0	322	14.183366065849	1
0	336	14.583782065849	1
0	351	15.003498492299	1
0	365	15.403914492299	1
0	380	16.703041535223	1
0	395	17.60722616736	1
0	409	18.00764216736	1
0	423	18.40805816736	1
0	437	18.80847416736	1
0	452	19.330780421514	1
0	466	19.731196421514	1
0	480	20.131612421514	1
0	495	21.025356253233	1
0	510	22.600441217571	1
0	525	23.35333334689	1
0	539	23.75374934689	1
0	554	24.773906475861	1
0	569	25.794352583817	1
0	584	27.716963518388	1
0	598	28.117379518388	1
0	613	28.919999296919	1
0	628	29.727000334365	1
0	642	30.127416334365	1
0	656	30.527832334365	1
0	671	31.28610032136	1
0	686	31.854069792215	1
0	700	32.254485792215	1
0	715	32.892099643327	1
0	730	33.402815580502	1
0	745	33.838976178023	1
0	759	34.239392178023	1
0	773	34.639808178023	1
0	788	36.087018417017	1
0	803	36.797700757064	1
0	817	37.198116757064	1
0	831	37.598532757064	1
0	845	37.998948757064	1
0	859	38.399364757064	1
0	873	38.799780757064	1
0	887	39.200196757064	1
0	902	39.94432416994	1
0	917	40.611969262252	1
0	931	41.012385262252	1
0	945	41.412801262252	1
0	960	41.832968615058	1
0	974	42.233384615058	1
0	988	42.633800615058	1
0	1002	43.034216615058	1
0	1017	43.514907084591	1
0	1031	43.915323084591	1
0	1046	44.388821423178	1
0	1060	44.789237423178	1
0	1075	45.269011411862	1
0	1089	45.669427411862	1
0	1104	47.108384922501	1
0	1119	48.272841609608	1
0	1134	48.845411086958	1
0	1148	49.245827086958	1
0	1162	49.646243086958	1
0	1177	50.120990378706	1
0	1191	50.521406378706	1
0	1206	51.684581909553	1
0	1221	52.282635809282	1
0	1235	52.683051809282	1
0	1249	53.083467809282	1
0	1264	54.833574651509	1
0	1279	55.383030885284	1
0	1294	55.912447951028	1
0	1309	56.467746673872	1
0	1323	56.868162673872	1
0	1337	57.268578673872	1
0	1351	57.668994673872	1
0	1365	58.069410673872	1
0	1380	58.763932018768	1
0	1394	59.164348018768	1
0	1409	59.632378798654	1
0	1423	60.032794798654	1
0	1437	60.433210798654	1
0	1452	60.855424695418	1
0	1466	61.255840695418	1
0	1480	61.656256695418	1
0	1495	62.159192198001	1
0	1510	64.386440621089	1
0	1525	65.982913942116	1
0	1539	66.383329942116	1
0	1554	66.912243148792	1
0	1568	67.312659148792	1
0	1583	67.816668771502	1
0	1597	68.217084771502	1
0	1612	70.897134946624	1
0	1627	71.426506304171	1
0	1642	71.862464230984	1
0	1656	72.262880230984	1
0	1670	72.663296230984	1
0	1684	73.063712230984	1
0	1698	73.464128230984	1
0	1712	73.864544230984	1
0	1727	74.352976268019	1
0	1741	74.753392268019	1
0	1755	75.153808268019	1
0	1769	75.554224268019	1
0	1784	76.115808418786	1
0	1799	76.649844517361	1
0	1813	77.050260517361	1
0	1827	77.450676517361	1
0	1842	78.203994183997	1
0	1856	78.604410183997	1
0	1871	80.098005129923	1
0	1885	80.498421129923	1
0	1900	81.041555820362	1
0	1915	81.90172164922	1
0	1929	82.30213764922	1
0	1943	82.70255364922	1
0	1958	83.190104616298	1
0	1973	84.10001407594	1
0	1988	84.659921258817	1
0	2002	85.060337258817	1
0	2017	86.847131444989	1
0	2032	88.721647174781	1
0	2047	89.774307825177	1
0	2061	90.174723825177	1
0	2075	90.575139825177	1
0	2090	92.456103467429	1
0	2104	92.856519467429	1
0	2119	93.32075871588	1
0	2133	93.72117471588	1
0	2148	94.393297351956	1
0	2162	94.793713351956	1
0	2176	95.194129351956	1
0	2190	95.594545351956	1
0	2204	95.994961351956	1
0	2219	97.940746413379	1
0	2233	98.341162413379	1
0	2247	98.741578413379	1
0	2261	99.141994413379	1
0	2275	99.542410413379	1
0	2289	99.942826413379	1
0	2304	100.526263176653	1
0	2318	100.926679176653	1
0	2333	101.988797775154	1
0	2347	102.389213775154	1
0	2362	103.641169666697	1
0	2376	104.041585666697	1
0	2390	104.442001666697	1
0	2405	105.03159643023	1
0	2420	105.448018188263	1
0	2435	105.866066954248	1
0	2450	106.867687215502	1
0	2464	107.268103215502	1
0	2478	107.668519215502	1
0	2492	108.068935215502	1
0	2507	109.31172639399	1
0	2521	109.71214239399	1
0	2536	110.982294647969	1
0	2551	111.411242468506	1
0	2565	111.811658468506	1
0	2580	113.136286432844	1
0	2594	113.536702432844	1
0	2608	113.937118432844	1
0	2622	114.337534432844	1
0	2637	114.887957387889	1
0	2652	115.81162121339	1
0	2666	116.21203721339	1
0	2681	116.73292754048	1
0	2696	117.362894445534	1
0	2711	118.283535681278	1
0	2725	118.683951681278	1
0	2739	119.084367681278	1
0	2753	119.484783681278	1
0	2767	119.885199681278	1
0	2782	120.326764202258	1
0	2797	120.729162902159	1
0	2811	121.129578902159	1
0	2825	121.529994902159	1
0	2840	122.412865438366	1
0	2854	122.813281438366	1
0	2868	123.213697438366	1
0	2882	123.614113438366	1
0	2897	124.180430509352	1
0	2912	124.601972025426	1
0	2926	125.002388025426	1
0	2941	125.610642352144	1
0	2956	126.275021289019	1
0	2970	126.675437289019	1
0	2985	128.313008877876	1
0	2999	128.713424877876	1
0	3013	129.113840877876	1
0	3028	129.819353082523	1
0	3043	130.248549566437	1
0	3057	130.648965566437	1
0	3072	131.09726100183	1
0	3087	132.22912778976	1
0	3102	132.653738195542	1
0	3117	133.163067560551	1
0	3131	133.563483560551	1
0	3146	134.674237009788	1
0	3161	136.20037783823	1
0	3176	136.770181819996	1
0	3190	137.170597819996	1
0	3204	137.571013819996	1
0	3219	138.507743759925	1
0	3234	140.429247051547	1
0	3249	141.03036633517	1
0	3263	141.43078233517	1
0	3277	141.83119833517	1
0	3292	142.559607614452	1
0	3307	143.400068716725	1
0	3321	143.800484716725	1
0	3335	144.200900716725	1
0	3350	144.763541725147	1
0	3365	145.828291423181	1
0	3379	146.228707423181	1
0	3394	146.663975336344	1
0	3408	147.064391336344	1
0	3423	148.131806561336	1
0	3438	149.813991787862	1
0	3453	150.403683254684	1
0	3468	150.847613959902	1
0	3483	151.493568594302	1
0	3498	152.03248603637	1
0	3512	152.43290203637	1
0	3526	152.83331803637	1
0	3541	154.396052215199	1
0	3555	154.796468215199	1
0	3570	155.312866720522	1
0	3584	155.713282720522	1
0	3598	156.113698720522	1
0	3613	156.595925503269	1
0	3628	157.062126943472	1
0	3642	157.462542943472	1
0	3656	157.862958943472	1
0	3670	158.263374943472	1
0	3684	158.663790943472	1
0	3699	159.293312702104	1
0	3714	159.832972801432	1
0	3728	160.233388801432	1
0	3742	160.633804801432	1
0	3756	161.034220801432	1
0	3771	161.515408329318	1
0	3786	162.206897932586	1
0	3800	162.607313932586	1
0	3815	163.661037735061	1
0	3829	164.061453735061	1
0	3843	164.461869735061	1
0	3857	164.862285735061	1
0	3871	165.262701735061	1
0	3886	165.684645971356	1
0	3900	166.085061971356	1
0	3915	166.531926510509	1
0	3930	166.933202503388	1
0	3945	167.36024237121	1
0	3959	167.76065837121	1
0	3974	168.290163063901	1
0	3989	170.026430803542	1
0	4004	170.554355607872	1
0	4018	170.954771607872	1
0	4032	171.355187607872	1
0	4046	171.755603607872	1
0	4061	172.889920604218	1
0	4075	173.290336604218	1
0	4089	173.690752604218	1
0	4103	174.091168604218	1
0	4117	174.491584604218	1
0	4132	176.560489484473	1
0	4147	177.672946813086	1
0	4161	178.073362813086	1
0	4176	178.893811602049	1
0	4190	179.294227602049	1
0	4205	179.902737349718	1
0	4219	180.303153349718	1
0	4233	180.703569349718	1
0	4247	181.103985349718	1
0	4262	182.36362641476	1
0	4276	182.76404241476	1
0	4291	183.390346177216	1
0	4305	183.790762177216	1
0	4320	187.173457437185	1
0	4335	188.093323829724	1
0	4349	188.493739829724	1
0	4364	189.668828474599	1
0	4379	190.681782883151	1
0	4393	191.082198883151	1
0	4407	191.482614883151	1
0	4421	191.883030883151	1
0	4436	192.361014095112	1
0	4450	192.761430095112	1
0	4464	193.161846095112	1
0	4479	193.916757822917	1
0	4494	194.85872226621	1
0	4509	195.859715513973	1
0	4524	196.683075064636	1
0	4538	197.083491064636	1
0	4553	197.504431545502	1
0	4567	197.904847545502	1
0	4581	198.305263545502	1
0	4595	198.705679545502	1
0	4609	199.106095545502	1
1	3	0.397937252283	0
1	18	0.847217446525	1
1	33	1.475182825549	2
1	48	2.404984931586	3
1	63	2.866596497321	4
1	78	3.842369165263	5
1	92	4.242785165263	6
1	107	5.182267192364	7
1	121	5.582683192364	8
1	136	6.071186405561	9
1	151	6.590266055893	10
1	165	6.990682055893	11
1	179	7.391098055893	12
1	193	7.791514055893	13
1	208	8.903276266911	14
1	222	9.303692266911	15
1	237	10.961148406875	16
1	251	11.361564406875	17
1	265	11.761980406875	18
1	279	12.162396406875	19
1	294	12.946844465687	20
1	309	13.782950065849	21
1	323	14.183366065849	22
1	337	14.583782065849	23
1	352	15.003498492299	24
1	366	15.403914492299	25
1	381	16.703041535223	26
1	396	17.60722616736	27
1	410	18.00764216736	28
1	424	18.40805816736	29
1	438	18.80847416736	30
1	453	19.330780421514	31
1	467	19.731196421514	32
1	481	20.131612421514	33
1	496	21.025356253233	34
1	511	22.600441217571	35
1	526	23.35333334689	36
1	540	23.75374934689	37
1	555	24.773906475861	38
1	570	25.794352583817	39
1	585	27.716963518388	40
1	599	28.117379518388	41
1	614	28.919999296919	42
1	629	29.727000334365	43
1	643	30.127416334365	44
1	657	30.527832334365	45
1	672	31.28610032136	46
1	687	31.854069792215	47
1	701	32.254485792215	48
1	716	32.892099643327	49
1	731	33.402815580502	50
1	746	33.838976178023	51
1	760	34.239392178023	52
1	774	34.639808178023	53
1	789	36.087018417017	54
1	804	36.797700757064	55
1	818	37.198116757064	56
1	832	37.598532757064	57
1	846	37.998948757064	58
1	860	38.399364757064	59
1	874	38.799780757064	60
1	888	39.200196757064	61
1	903	39.94432416994	62
1	918	40.611969262252	63
1	932	41.012385262252	64
1	946	41.412801262252	65
1	961	41.832968615058	66
1	975	42.233384615058	67
1	989	42.633800615058	68
1	1003	43.034216615058	69
1	1018	43.514907084591	70
1	1032	43.915323084591	71
1	1047	44.388821423178	72
1	1061	44.789237423178	73
1	1076	45.269011411862	74
1	1090	45.669427411862	75
1	1105	47.108384922501	76
1	1120	48.272841609608	77
1	1135	48.845411086958	78
1	1149	49.245827086958	79
1	1163	49.646243086958	80
1	1178	50.120990378706	81
1	1192	50.521406378706	82
1	1207	51.684581909553	83
1	1222	52.282635809282	84
1	1236	52.683051809282	85
1	1250	53.083467809282	86
1	1265	54.833574651509	87
1	1280	55.383030885284	88
1	1295	55.912447951028	89
1	1310	56.467746673872	90
1	1324	56.868162673872	91
1	1338	57.268578673872	92
1	1352	57.668994673872	93
1	1366	58.069410673872	94
1	1381	58.763932018768	95
1	1395	59.164348018768	96
1	1410	59.632378798654	97
1	1424	60.032794798654	98
1	1438	60.433210798654	99
1	1453	60.855424695418	100
1	1467	61.255840695418	101
1	1481	61.656256695418	102
1	1496	62.159192198001	103
1	1511	64.386440621089	104
1	1526	65.982913942116	105
1	1540	66.383329942116	106
1	1555	66.912243148792	107
1	1569	67.312659148792	108
1	1584	67.816668771502	109
1	1598	68.217084771502	110
1	1613	70.897134946624	111
1	1628	71.426506304171	112
1	1643	71.862464230984	113
1	1657	72.262880230984	114
1	1671	72.663296230984	115
1	1685	73.063712230984	116
1	1699	73.464128230984	117
1	1713	73.864544230984	118
1	1728	74.352976268019	119
1	1742	74.753392268019	120
1	1756	75.153808268019	121
1	1770	75.554224268019	122
1	1785	76.115808418786	123
1	1800	76.649844517361	124
1	1814	77.050260517361	125
1	1828	77.450676517361	126
1	1843	78.203994183997	127
1	1857	78.604410183997	128
1	1872	80.098005129923	129
1	1886	80.498421129923	130
1	1901	81.041555820362	131
1	1916	81.90172164922	132
1	1930	82.30213764922	133
1	1944	82.70255364922	134
1	1959	83.190104616298	135
1	1974	84.10001407594	136
1	1989	84.659921258817	137
1	2003	85.060337258817	138
1	2018	86.847131444989	139
1	2033	88.721647174781	140
1	2048	89.774307825177	141
1	2062	90.174723825177	142
1	2076	90.575139825177	143
1	2091	92.456103467429	144
1	2105	92.856519467429	145
1	2120	93.32075871588	146
1	2134	93.72117471588	147
1	2149	94.393297351956	148
1	2163	94.793713351956	149
1	2177	95.194129351956	150
1	2191	95.594545351956	151
1	2205	95.994961351956	152
1	2220	97.940746413379	153
1	2234	98.341162413379	154
1	2248	98.741578413379	155
1	2262	99.141994413379	156
1	2276	99.542410413379	157
1	2290	99.942826413379	158
1	2305	100.526263176653	159
1	2319	100.926679176653	160
1	2334	101.988797775154	161
1	2348	102.389213775154	162
1	2363	103.641169666697	163
1	2377	104.041585666697	164
1	2391	104.442001666697	165
1	2406	105.03159643023	166
1	2421	105.448018188263	167
1	2436	105.866066954248	168
1	2451	106.867687215502	169
1	2465	107.268103215502	170
1	2479	107.668519215502	171
1	2493	108.068935215502	172
1	2508	109.31172639399	173
1	2522	109.71214239399	174
1	2537	110.982294647969	175
1	2552	111.411242468506	176
1	2566	111.811658468506	177
1	2581	113.136286432844	178
1	2595	113.536702432844	179
1	2609	113.937118432844	180
1	2623	114.337534432844	181
1	2638	114.887957387889	182
1	2653	115.81162121339	183
1	2667	116.21203721339	184
1	2682	116.73292754048	185
1	2697	117.362894445534	186
1	2712	118.283535681278	187
1	2726	118.683951681278	188
1	2740	119.084367681278	189
1	2754	119.484783681278	190
1	2768	119.885199681278	191
1	2783	120.326764202258	192
1	2798	120.729162902159	193
1	2812	121.129578902159	194
1	2826	121.529994902159	195
1	2841	122.412865438366	196
1	2855	122.813281438366	197
1	2869	123.213697438366	198
1	2883	123.614113438366	199
1	2898	124.180430509352	200
1	2913	124.601972025426	201
1	2927	125.002388025426	202
1	2942	125.610642352144	203
1	2957	126.275021289019	204
1	2971	126.675437289019	205
1	2986	128.313008877876	206
1	3000	128.713424877876	207
1	3014	129.113840877876	208
1	3029	129.819353082523	209
1	3044	130.248549566437	210
1	3058	130.648965566437	211
1	3073	131.09726100183	212
1	3088	132.22912778976	213
1	3103	132.653738195542	214
1	3118	133.163067560551	215
1	3132	133.563483560551	216
1	3147	134.674237009788	217
1	3162	136.20037783823	218
1	3177	136.770181819996	219
1	3191	137.170597819996	220
1	3205	137.571013819996	221
1	3220	138.507743759925	222
1	3235	140.429247051547	223
1	3250	141.03036633517	224
1	3264	141.43078233517	225
1	3278	141.83119833517	226
1	3293	142.559607614452	227
1	3308	143.400068716725	228
1	3322	143.800484716725	229
1	3336	144.200900716725	230
1	3351	144.763541725147	231
1	3366	145.828291423181	232
1	3380	146.228707423181	233
1	3395	146.663975336344	234
1	3409	147.064391336344	235
1	3424	148.131806561336	236
1	3439	149.813991787862	237
1	3454	150.403683254684	238
1	3469	150.847613959902	239
1	3484	151.493568594302	240
1	3499	152.03248603637	241
1	3513	152.43290203637	242
1	3527	152.83331803637	243
1	3542	154.396052215199	244
1	3556	154.796468215199	245
1	3571	155.312866720522	246
1	3585	155.713282720522	247
1	3599	156.113698720522	248
1	3614	156.595925503269	249
1	3629	157.062126943472	250
1	3643	157.462542943472	251
1	3657	157.862958943472	252
1	3671	158.263374943472	253
1	3685	158.663790943472	254
1	3700	159.293312702104	255
1	3715	159.832972801432	256
1	3729	160.233388801432	257
1	3743	160.633804801432	258
1	3757	161.034220801432	259
1	3772	161.515408329318	260
1	3787	162.206897932586	261
1	3801	162.607313932586	262
1	3816	163.661037735061	263
1	3830	164.061453735061	264
1	3844	164.461869735061	265
1	3858	164.862285735061	266
1	3872	165.262701735061	267
1	3887	165.684645971356	268
1	3901	166.085061971356	269
1	3916	166.531926510509	270
1	3931	166.933202503388	271
1	3946	167.36024237121	272
1	3960	167.76065837121	273
1	3975	168.290163063901	274
1	3990	170.026430803542	275
1	4005	170.554355607872	276
1	4019	170.954771607872	277
1	4033	171.355187607872	278
1	4047	171.755603607872	279
1	4062	172.889920604218	280
1	4076	173.290336604218	281
1	4090	173.690752604218	282
1	4104	174.091168604218	283
1	4118	174.491584604218	284
1	4133	176.560489484473	285
1	4148	177.672946813086	286
1	4162	178.073362813086	287
1	4177	178.893811602049	288
1	4191	179.294227602049	289
1	4206	179.902737349718	290
1	4220	180.303153349718	291
1	4234	180.703569349718	292
1	4248	181.103985349718	293
1	4263	182.36362641476	294
1	4277	182.76404241476	295
1	4292	183.390346177216	296
1	4306	183.790762177216	297
1	4321	187.173457437185	298
1	4336	188.093323829724	299
1	4350	188.493739829724	300
1	4365	189.668828474599	301
1	4380	190.681782883151	302
1	4394	191.082198883151	303
1	4408	191.482614883151	304
1	4422	191.883030883151	305
1	4437	192.361014095112	306
1	4451	192.761430095112	307
1	4465	193.161846095112	308
1	4480	193.916757822917	309
1	4495	194.85872226621	310
1	4510	195.859715513973	311
1	4525	196.683075064636	312
1	4539	197.083491064636	313
1	4554	197.504431545502	314
1	4568	197.904847545502	315
1	4582	198.305263545502	316
1	4596	198.705679545502	317
1	4610	199.106095545502	318
2	5	0.498037252283	1
2	20	0.947317446525	1
2	35	1.575282825549	1
2	50	2.505084931586	1
2	65	2.966696497321	1
2	80	3.942469165263	1
2	94	4.342885165263	1
2	109	5.282367192364	1
2	123	5.682783192364	1
2	138	6.171286405561	1
2	153	6.690366055893	1
2	167	7.090782055893	1
2	181	7.491198055893	1
2	195	7.891614055893	1
2	210	9.003376266911	1
2	224	9.403792266911	1
2	239	11.061248406875	1
2	253	11.461664406875	1
2	267	11.862080406875	1
2	281	12.262496406875	1
2	296	13.046944465687	1
2	311	13.883050065849	1
2	325	14.283466065849	1
2	339	14.683882065849	1
2	354	15.103598492299	1
2	368	15.504014492299	1
2	383	16.803141535223	1
2	398	17.70732616736	1
2	412	18.10774216736	1
2	426	18.50815816736	1
2	440	18.90857416736	1
2	455	19.430880421514	1
2	469	19.831296421514	1
2	483	20.231712421514	1
2	498	21.125456253233	1
2	513	22.700541217571	1
2	528	23.45343334689	1
2	542	23.85384934689	1
2	557	24.874006475861	1
2	572	25.894452583817	1
2	587	27.817063518388	1
2	601	28.217479518388	1
2	616	29.020099296919	1
2	631	29.827100334365	1
2	645	30.227516334365	1
2	659	30.627932334365	1
2	674	31.38620032136	1
2	689	31.954169792215	1
2	703	32.354585792215	1
2	718	32.992199643327	1
2	733	33.502915580502	1
2	748	33.939076178023	1
2	762	34.339492178023	1
2	776	34.739908178023	1
2	791	36.187118417017	1
2	806	36.897800757064	1
2	820	37.298216757064	1
2	834	37.698632757064	1
2	848	38.099048757064	1
2	862	38.499464757064	1
2	876	38.899880757064	1
2	890	39.300296757064	1
2	905	40.04442416994	1
2	920	40.712069262252	1
2	934	41.112485262252	1
2	948	41.512901262252	1
2	963	41.933068615058	1
2	977	42.333484615058	1
2	991	42.733900615058	1
2	1005	43.134316615058	1
2	1020	43.615007084591	1
2	1034	44.015423084591	1
2	1049	44.488921423178	1
2	1063	44.889337423178	1
2	1078	45.369111411862	1
2	1092	45.769527411862	1
2	1107	47.208484922501	1
2	1122	48.372941609608	1
2	1137	48.945511086958	1
2	1151	49.345927086958	1
2	1165	49.746343086958	1
2	1180	50.221090378706	1
2	1194	50.621506378706	1
2	1209	51.784681909553	1
2	1224	52.382735809282	1
2	1238	52.783151809282	1
2	1252	53.183567809282	1
2	1267	54.933674651509	1
2	1282	55.483130885284	1
2	1297	56.012547951028	1
2	1312	56.567846673872	1
2	1326	56.968262673872	1
2	1340	57.368678673872	1
2	1354	57.769094673872	1
2	1368	58.169510673872	1
2	1383	58.864032018768	1
2	1397	59.264448018768	1
2	1412	59.732478798654	1
2	1426	60.132894798654	1
2	1440	60.533310798654	1
2	1455	60.955524695418	1
2	1469	61.355940695418	1
2	1483	61.756356695418	1
2	1498	62.259292198001	1
2	1513	64.486540621089	1
2	1528	66.083013942116	1
2	1542	66.483429942116	1
2	1557	67.012343148792	1
2	1571	67.412759148792	1
2	1586	67.916768771502	1
2	1600	68.317184771502	1
2	1615	70.997234946624	1
2	1630	71.526606304171	1
2	1645	71.962564230984	1
2	1659	72.362980230984	1
2	1673	72.763396230984	1
2	1687	73.163812230984	1
2	1701	73.564228230984	1
2	1715	73.964644230984	1
2	1730	74.453076268019	1
2	1744	74.853492268019	1
2	1758	75.253908268019	1
2	1772	75.654324268019	1
2	1787	76.215908418786	1
2	1802	76.749944517361	1
2	1816	77.150360517361	1
2	1830	77.550776517361	1
2	1845	78.304094183997	1
2	1859	78.704510183997	1
2	1874	80.198105129923	1
2	1888	80.598521129923	1
2	1903	81.141655820362	1
2	1918	82.00182164922	1
2	1932	82.40223764922	1
2	1946	82.80265364922	1
2	1961	83.290204616298	1
2	1976	84.20011407594	1
2	1991	84.760021258817	1
2	2005	85.160437258817	1
2	2020	86.947231444989	1
2	2035	88.821747174781	1
2	2050	89.874407825177	1
2	2064	90.274823825177	1
2	2078	90.675239825177	1
2	2093	92.556203467429	1
2	2107	92.956619467429	1
2	2122	93.42085871588	1
2	2136	93.82127471588	1
2	2151	94.493397351956	1
2	2165	94.893813351956	1
2	2179	95.294229351956	1
2	2193	95.694645351956	1
2	2207	96.095061351956	1
2	2222	98.040846413379	1
2	2236	98.441262413379	1
2	2250	98.841678413379	1
2	2264	99.242094413379	1
2	2278	99.642510413379	1
2	2292	100.042926413379	1
2	2307	100.626363176653	1
2	2321	101.026779176653	1
2	2336	102.088897775154	1
2	2350	102.489313775154	1
2	2365	103.741269666697	1
2	2379	104.141685666697	1
2	2393	104.542101666697	1
2	2408	105.13169643023	1
2	2423	105.548118188263	1
2	2438	105.966166954248	1
2	2453	106.967787215502	1
2	2467	107.368203215502	1
2	2481	107.768619215502	1
2	2495	108.169035215502	1
2	2510	109.41182639399	1
2	2524	109.81224239399	1
2	2539	111.082394647969	1
2	2554	111.511342468506	1
2	2568	111.911758468506	1
2	2583	113.236386432844	1
2	2597	113.636802432844	1
2	2611	114.037218432844	1
2	2625	114.437634432844	1
2	2640	114.988057387889	1
2	2655	115.91172121339	1
2	2669	116.31213721339	1
2	2684	116.83302754048	1
2	2699	117.462994445534	1
2	2714	118.383635681278	1
2	2728	118.784051681278	1
2	2742	119.184467681278	1
2	2756	119.584883681278	1
2	2770	119.985299681278	1
2	2785	120.426864202258	1
2	2800	120.829262902159	1
2	2814	121.229678902159	1
2	2828	121.630094902159	1
2	2843	122.512965438366	1
2	2857	122.913381438366	1
2	2871	123.313797438366	1
2	2885	123.714213438366	1
2	2900	124.280530509352	1
2	2915	124.702072025426	1
2	2929	125.102488025426	1
2	2944	125.710742352144	1
2	2959	126.375121289019	1
2	2973	126.775537289019	1
2	2988	128.413108877876	1
2	3002	128.813524877876	1
2	3016	129.213940877876	1
2	3031	129.919453082523	1
2	3046	130.348649566437	1
2	3060	130.749065566437	1
2	3075	131.19736100183	1
2	3090	132.32922778976	1
2	3105	132.753838195542	1
2	3120	133.263167560551	1
2	3134	133.663583560551	1
2	3149	134.774337009788	1
2	3164	136.30047783823	1
2	3179	136.870281819996	1
2	3193	137.270697819996	1
2	3207	137.671113819996	1
2	3222	138.607843759925	1
2	3237	140.529347051547	1
2	3252	141.13046633517	1
2	3266	141.53088233517	1
2	3280	141.93129833517	1
2	3295	142.659707614452	1
2	3310	143.500168716725	1
2	3324	143.900584716725	1
2	3338	144.301000716725	1
2	3353	144.863641725147	1
2	3368	145.928391423181	1
2	3382	146.328807423181	1
2	3397	146.764075336344	1
2	3411	147.164491336344	1
2	3426	148.231906561336	1
2	3441	149.914091787862	1
2	3456	150.503783254684	1
2	3471	150.947713959902	1
2	3486	151.593668594302	1
2	3501	152.13258603637	1
2	3515	152.53300203637	1
2	3529	152.93341803637	1
2	3544	154.496152215199	1
2	3558	154.896568215199	1
2	3573	155.412966720522	1
2	3587	155.813382720522	1
2	3601	156.213798720522	1
2	3616	156.696025503269	1
2	3631	157.162226943472	1
2	3645	157.562642943472	1
2	3659	157.963058943472	1
2	3673	158.363474943472	1
2	3687	158.763890943472	1
2	3702	159.393412702104	1
2	3717	159.933072801432	1
2	3731	160.333488801432	1
2	3745	160.733904801432	1
2	3759	161.134320801432	1
2	3774	161.615508329318	1
2	3789	162.306997932586	1
2	3803	162.707413932586	1
2	3818	163.761137735061	1
2	3832	164.161553735061	1
2	3846	164.561969735061	1
2	3860	164.962385735061	1
2	3874	165.362801735061	1
2	3889	165.784745971356	1
2	3903	166.185161971356	1
2	3918	166.632026510509	1
2	3933	167.033302503388	1
2	3948	167.46034237121	1
2	3962	167.86075837121	1
2	3977	168.390263063901	1
2	3992	170.126530803542	1
2	4007	170.654455607872	1
2	4021	171.054871607872	1
2	4035	171.455287607872	1
2	4049	171.855703607872	1
2	4064	172.990020604218	1
2	4078	173.390436604218	1
2	4092	173.790852604218	1
2	4106	174.191268604218	1
2	4120	174.591684604218	1
2	4135	176.660589484473	1
2	4150	177.773046813086	1
2	4164	178.173462813086	1
2	4179	178.993911602049	1
2	4193	179.394327602049	1
2	4208	180.002837349718	1
2	4222	180.403253349718	1
2	4236	180.803669349718	1
2	4250	181.204085349718	1
2	4265	182.46372641476	1
2	4279	182.86414241476	1
2	4294	183.490446177216	1
2	4308	183.890862177216	1
2	4323	187.273557437185	1
2	4338	188.193423829724	1
2	4352	188.593839829724	1
2	4367	189.768928474599	1
2	4382	190.781882883151	1
2	4396	191.182298883151	1
2	4410	191.582714883151	1
2	4424	191.983130883151	1
2	4439	192.461114095112	1
2	4453	192.861530095112	1
2	4467	193.261946095112	1
2	4482	194.016857822917	1
2	4497	194.95882226621	1
2	4512	195.959815513973	1
2	4527	196.783175064636	1
2	4541	197.183591064636	1
2	4556	197.604531545502	1
2	4570	198.004947545502	1
2	4584	198.405363545502	1
2	4598	198.805779545502	1
2	4612	199.206195545502	1
3	6	0.498037252283	0
3	21	0.947317446525	1
3	36	1.575282825549	2
3	51	2.505084931586	3
3	66	2.966696497321	4
3	81	3.942469165263	5
3	95	4.342885165263	6
3	110	5.282367192364	7
3	124	5.682783192364	8
3	139	6.171286405561	9
3	154	6.690366055893	10
3	168	7.090782055893	11
3	182	7.491198055893	12
3	196	7.891614055893	13
3	211	9.003376266911	14
3	225	9.403792266911	15
3	240	11.061248406875	16
3	254	11.461664406875	17
3	268	11.862080406875	18
3	282	12.262496406875	19
3	297	13.046944465687	20
3	312	13.883050065849	21
3	326	14.283466065849	22
3	340	14.683882065849	23
3	355	15.103598492299	24
3	369	15.504014492299	25
3	384	16.803141535223	26
3	399	17.70732616736	27
3	413	18.10774216736	28
3	427	18.50815816736	29
3	441	18.90857416736	30
3	456	19.430880421514	31
3	470	19.831296421514	32
3	484	20.231712421514	33
3	499	21.125456253233	34
3	514	22.700541217571	35
3	529	23.45343334689	36
3	543	23.85384934689	37
3	558	24.874006475861	38
3	573	25.894452583817	39
3	588	27.817063518388	40
3	602	28.217479518388	41
3	617	29.020099296919	42
3	632	29.827100334365	43
3	646	30.227516334365	44
3	660	30.627932334365	45
3	675	31.38620032136	46
3	690	31.954169792215	47
3	704	32.354585792215	48
3	719	32.992199643327	49
3	734	33.502915580502	50
3	749	33.939076178023	51
3	763	34.339492178023	52
3	777	34.739908178023	53
3	792	36.187118417017	54
3	807	36.897800757064	55
3	821	37.298216757064	56
3	835	37.698632757064	57
3	849	38.099048757064	58
3	863	38.499464757064	59
3	877	38.899880757064	60
3	891	39.300296757064	61
3	906	40.04442416994	62
3	921	40.712069262252	63
3	935	41.112485262252	64
3	949	41.512901262252	65
3	964	41.933068615058	66
3	978	42.333484615058	67
3	992	42.733900615058	68
3	1006	43.134316615058	69
3	1021	43.615007084591	70
3	1035	44.015423084591	71
3	1050	44.488921423178	72
3	1064	44.889337423178	73
3	1079	45.369111411862	74
3	1093	45.769527411862	75
3	1108	47.208484922501	76
3	1123	48.372941609608	77
3	1138	48.945511086958	78
3	1152	49.345927086958	79
3	1166	49.746343086958	80
3	1181	50.221090378706	81
3	1195	50.621506378706	82
3	1210	51.784681909553	83
3	1225	52.382735809282	84
3	1239	52.783151809282	85
3	1253	53.183567809282	86
3	1268	54.933674651509	87
3	1283	55.483130885284	88
3	1298	56.012547951028	89
3	1313	56.567846673872	90
3	1327	56.968262673872	91
3	1341	57.368678673872	92
3	1355	57.769094673872	93
3	1369	58.169510673872	94
3	1384	58.864032018768	95
3	1398	59.264448018768	96
3	1413	59.732478798654	97
3	1427	60.132894798654	98
3	1441	60.533310798654	99
3	1456	60.955524695418	100
3	1470	61.355940695418	101
3	1484	61.756356695418	102
3	1499	62.259292198001	103
3	1514	64.486540621089	104
3	1529	66.083013942116	105
3	1543	66.483429942116	106
3	1558	67.012343148792	107
3	1572	67.412759148792	108
3	1587	67.916768771502	109
3	1601	68.317184771502	110
3	1616	70.997234946624	111
3	1631	71.526606304171	112
3	1646	71.962564230984	113
3	1660	72.362980230984	114
3	1674	72.763396230984	115
3	1688	73.163812230984	116
3	1702	73.564228230984	117
3	1716	73.964644230984	118
3	1731	74.453076268019	119
3	1745	74.853492268019	120
3	1759	75.253908268019	121
3	1773	75.654324268019	122
3	1788	76.215908418786	123
3	1803	76.749944517361	124
3	1817	77.150360517361	125
3	1831	77.550776517361	126
3	1846	78.304094183997	127
3	1860	78.704510183997	128
3	1875	80.198105129923	129
3	1889	80.598521129923	130
3	1904	81.141655820362	131
3	1919	82.00182164922	132
3	1933	82.40223764922	133
3	1947	82.80265364922	134
3	1962	83.290204616298	135
3	1977	84.20011407594	136
3	1992	84.760021258817	137
3	2006	85.160437258817	138
3	2021	86.947231444989	139
3	2036	88.821747174781	140
3	2051	89.874407825177	141
3	2065	90.274823825177	142
3	2079	90.675239825177	143
3	2094	92.556203467429	144
3	2108	92.956619467429	145
3	2123	93.42085871588	146
3	2137	93.82127471588	147
3	2152	94.493397351956	148
3	2166	94.893813351956	149
3	2180	95.294229351956	150
3	2194	95.694645351956	151
3	2208	96.095061351956	152
3	2223	98.040846413379	153
3	2237	98.441262413379	154
3	2251	98.841678413379	155
3	2265	99.242094413379	156
3	2279	99.642510413379	157
3	2293	100.042926413379	158
3	2308	100.626363176653	159
3	2322	101.026779176653	160
3	2337	102.088897775154	161
3	2351	102.489313775154	162
3	2366	103.741269666697	163
3	2380	104.141685666697	164
3	2394	104.542101666697	165
3	2409	105.13169643023	166
3	2424	105.548118188263	167
3	2439	105.966166954248	168
3	2454	106.967787215502	169
3	2468	107.368203215502	170
3	2482	107.768619215502	171
3	2496	108.169035215502	172
3	2511	109.41182639399	173
3	2525	109.81224239399	174
3	2540	111.082394647969	175
3	2555	111.511342468506	176
3	2569	111.911758468506	177
3	2584	113.236386432844	178
3	2598	113.636802432844	179
3	2612	114.037218432844	180
3	2626	114.437634432844	181
3	2641	114.988057387889	182
3	2656	115.91172121339	183
3	2670	116.31213721339	184
3	2685	116.83302754048	185
3	2700	117.462994445534	186
3	2715	118.383635681278	187
3	2729	118.784051681278	188
3	2743	119.184467681278	189
3	2757	119.584883681278	190
3	2771	119.985299681278	191
3	2786	120.426864202258	192
3	2801	120.829262902159	193
3	2815	121.229678902159	194
3	2829	121.630094902159	195
3	2844	122.512965438366	196
3	2858	122.913381438366	197
3	2872	123.313797438366	198
3	2886	123.714213438366	199
3	2901	124.280530509352	200
3	2916	124.702072025426	201
3	2930	125.102488025426	202
3	2945	125.710742352144	203
3	2960	126.375121289019	204
3	2974	126.775537289019	205
3	2989	128.413108877876	206
3	3003	128.813524877876	207
3	3017	129.213940877876	208
3	3032	129.919453082523	209
3	3047	130.348649566437	210
3	3061	130.749065566437	211
3	3076	131.19736100183	212
3	3091	132.32922778976	213
3	3106	132.753838195542	214
3	3121	133.263167560551	215
3	3135	133.663583560551	216
3	3150	134.774337009788	217
3	3165	136.30047783823	218
3	3180	136.870281819996	219
3	3194	137.270697819996	220
3	3208	137.671113819996	221
3	3223	138.607843759925	222
3	3238	140.529347051547	223
3	3253	141.13046633517	224
3	3267	141.53088233517	225
3	3281	141.93129833517	226
3	3296	142.659707614452	227
3	3311	143.500168716725	228
3	3325	143.900584716725	229
3	3339	144.301000716725	230
3	3354	144.863641725147	231
3	3369	145.928391423181	232
3	3383	146.328807423181	233
3	3398	146.764075336344	234
3	3412	147.164491336344	235
3	3427	148.231906561336	236
3	3442	149.914091787862	237
3	3457	150.503783254684	238
3	3472	150.947713959902	239
3	3487	151.593668594302	240
3	3502	152.13258603637	241
3	3516	152.53300203637	242
3	3530	152.93341803637	243
3	3545	154.496152215199	244
3	3559	154.896568215199	245
3	3574	155.412966720522	246
3	3588	155.813382720522	247
3	3602	156.213798720522	248
3	3617	156.696025503269	249
3	3632	157.162226943472	250
3	3646	157.562642943472	251
3	3660	157.963058943472	252
3	3674	158.363474943472	253
3	3688	158.763890943472	254
3	3703	159.393412702104	255
3	3718	159.933072801432	256
3	3732	160.333488801432	257
3	3746	160.733904801432	258
3	3760	161.134320801432	259
3	3775	161.615508329318	260
3	3790	162.306997932586	261
3	3804	162.707413932586	262
3	3819	163.761137735061	263
3	3833	164.161553735061	264
3	3847	164.561969735061	265
3	3861	164.962385735061	266
3	3875	165.362801735061	267
3	3890	165.784745971356	268
3	3904	166.185161971356	269
3	3919	166.632026510509	270
3	3934	167.033302503388	271
3	3949	167.46034237121	272
3	3963	167.86075837121	273
3	3978	168.390263063901	274
3	3993	170.126530803542	275
3	4008	170.654455607872	276
3	4022	171.054871607872	277
3	4036	171.455287607872	278
3	4050	171.855703607872	279
3	4065	172.990020604218	280
3	4079	173.390436604218	281
3	4093	173.790852604218	282
3	4107	174.191268604218	283
3	4121	174.591684604218	284
3	4136	176.660589484473	285
3	4151	177.773046813086	286
3	4165	178.173462813086	287
3	4180	178.993911602049	288
3	4194	179.394327602049	289
3	4209	180.002837349718	290
3	4223	180.403253349718	291
3	4237	180.803669349718	292
3	4251	181.204085349718	293
3	4266	182.46372641476	294
3	4280	182.86414241476	295
3	4295	183.490446177216	296
3	4309	183.890862177216	297
3	4324	187.273557437185	298
3	4339	188.193423829724	299
3	4353	188.593839829724	300
3	4368	189.768928474599	301
3	4383	190.781882883151	302
3	4397	191.182298883151	303
3	4411	191.582714883151	304
3	4425	191.983130883151	305
3	4440	192.461114095112	306
3	4454	192.861530095112	307
3	4468	193.261946095112	308
3	4483	194.016857822917	309
3	4498	194.95882226621	310
3	4513	195.959815513973	311
3	4528	196.783175064636	312
3	4542	197.183591064636	313
3	4557	197.604531545502	314
3	4571	198.004947545502	315
3	4585	198.405363545502	316
3	4599	198.805779545502	317
3	4613	199.206195545502	318
4	8	0.698137252283	1
4	23	1.147417446525	1
4	38	1.775382825549	1
4	53	2.705184931586	1
4	68	3.166796497321	1
4	83	4.142569165263	1
4	97	4.542985165263	1
4	112	5.482467192364	1
4	126	5.882883192364	1
4	141	6.371386405561	1
4	156	6.890466055893	1
4	170	7.290882055893	1
4	184	7.691298055893	1
4	198	8.091714055893	1
4	213	9.203476266911	1
4	227	9.603892266911	1
4	242	11.261348406875	1
4	256	11.661764406875	1
4	270	12.062180406875	1
4	284	12.462596406875	1
4	299	13.247044465687	1
4	314	14.083150065849	1
4	328	14.483566065849	1
4	342	14.883982065849	1
4	357	15.303698492299	1
4	371	15.704114492299	1
4	386	17.003241535223	1
4	401	17.90742616736	1
4	415	18.30784216736	1
4	429	18.70825816736	1
4	443	19.10867416736	1
4	458	19.630980421514	1
4	472	20.031396421514	1
4	486	20.431812421514	1
4	501	21.325556253233	1
4	516	22.900641217571	1
4	531	23.65353334689	1
4	545	24.05394934689	1
4	560	25.074106475861	1
4	575	26.094552583817	1
4	590	28.017163518388	1
4	604	28.417579518388	1
4	619	29.220199296919	1
4	634	30.027200334365	1
4	648	30.427616334365	1
4	662	30.828032334365	1
4	677	31.58630032136	1
4	692	32.154269792215	1
4	706	32.554685792215	1
4	721	33.192299643327	1
4	736	33.703015580502	1
4	751	34.139176178023	1
4	765	34.539592178023	1
4	779	34.940008178023	1
4	794	36.387218417017	1
4	809	37.097900757064	1
4	823	37.498316757064	1
4	837	37.898732757064	1
4	851	38.299148757064	1
4	865	38.699564757064	1
4	879	39.099980757064	1
4	893	39.500396757064	1
4	908	40.24452416994	1
4	923	40.912169262252	1
4	937	41.312585262252	1
4	951	41.713001262252	1
4	966	42.133168615058	1
4	980	42.533584615058	1
4	994	42.934000615058	1
4	1008	43.334416615058	1
4	1023	43.815107084591	1
4	1037	44.215523084591	1
4	1052	44.689021423178	1
4	1066	45.089437423178	1
4	1081	45.569211411862	1
4	1095	45.969627411862	1
4	1110	47.408584922501	1
4	1125	48.573041609608	1
4	1140	49.145611086958	1
4	1154	49.546027086958	1
4	1168	49.946443086958	1
4	1183	50.421190378706	1
4	1197	50.821606378706	1
4	1212	51.984781909553	1
4	1227	52.582835809282	1
4	1241	52.983251809282	1
4	1255	53.383667809282	1
4	1270	55.133774651509	1
4	1285	55.683230885284	1
4	1300	56.212647951028	1
4	1315	56.767946673872	1
4	1329	57.168362673872	1
4	1343	57.568778673872	1
4	1357	57.969194673872	1
4	1371	58.369610673872	1
4	1386	59.064132018768	1
4	1400	59.464548018768	1
4	1415	59.932578798654	1
4	1429	60.332994798654	1
4	1443	60.733410798654	1
4	1458	61.155624695418	1
4	1472	61.556040695418	1
4	1486	61.956456695418	1
4	1501	62.459392198001	1
4	1516	64.686640621089	1
4	1531	66.283113942116	1
4	1545	66.683529942116	1
4	1560	67.212443148792	1
4	1574	67.612859148792	1
4	1589	68.116868771502	1
4	1603	68.517284771502	1
4	1618	71.197334946624	1
4	1633	71.726706304171	1
4	1648	72.162664230984	1
4	1662	72.563080230984	1
4	1676	72.963496230984	1
4	1690	73.363912230984	1
4	1704	73.764328230984	1
4	1718	74.164744230984	1
4	1733	74.653176268019	1
4	1747	75.053592268019	1
4	1761	75.454008268019	1
4	1775	75.854424268019	1
4	1790	76.416008418786	1
4	1805	76.950044517361	1
4	1819	77.350460517361	1
4	1833	77.750876517361	1
4	1848	78.504194183997	1
4	1862	78.904610183997	1
4	1877	80.398205129923	1
4	1891	80.798621129923	1
4	1906	81.341755820362	1
4	1921	82.20192164922	1
4	1935	82.60233764922	1
4	1949	83.00275364922	1
4	1964	83.490304616298	1
4	1979	84.40021407594	1
4	1994	84.960121258817	1
4	2008	85.360537258817	1
4	2023	87.147331444989	1
4	2038	89.021847174781	1
4	2053	90.074507825177	1
4	2067	90.474923825177	1
4	2081	90.875339825177	1
4	2096	92.756303467429	1
4	2110	93.156719467429	1
4	2125	93.62095871588	1
4	2139	94.02137471588	1
4	2154	94.693497351956	1
4	2168	95.093913351956	1
4	2182	95.494329351956	1
4	2196	95.894745351956	1
4	2210	96.295161351956	1
4	2225	98.240946413379	1
4	2239	98.641362413379	1
4	2253	99.041778413379	1
4	2267	99.442194413379	1
4	2281	99.842610413379	1
4	2295	100.243026413379	1
4	2310	100.826463176653	1
4	2324	101.226879176653	1
4	2339	102.288997775154	1
4	2353	102.689413775154	1
4	2368	103.941369666697	1
4	2382	104.341785666697	1
4	2396	104.742201666697	1
4	2411	105.33179643023	1
4	2426	105.748218188263	1
4	2441	106.166266954248	1
4	2456	107.167887215502	1
4	2470	107.568303215502	1
4	2484	107.968719215502	1
4	2498	108.369135215502	1
4	2513	109.61192639399	1
4	2527	110.01234239399	1
4	2542	111.282494647969	1
4	2557	111.711442468506	1
4	2571	112.111858468506	1
4	2586	113.436486432844	1
4	2600	113.836902432844	1
4	2614	114.237318432844	1
4	2628	114.637734432844	1
4	2643	115.188157387889	1
4	2658	116.11182121339	1
4	2672	116.51223721339	1
4	2687	117.03312754048	1
4	2702	117.663094445534	1
4	2717	118.583735681278	1
4	2731	118.984151681278	1
4	2745	119.384567681278	1
4	2759	119.784983681278	1
4	2773	120.185399681278	1
4	2788	120.626964202258	1
4	2803	121.029362902159	1
4	2817	121.429778902159	1
4	2831	121.830194902159	1
4	2846	122.713065438366	1
4	2860	123.113481438366	1
4	2874	123.513897438366	1
4	2888	123.914313438366	1
4	2903	124.480630509352	1
4	2918	124.902172025426	1
4	2932	125.302588025426	1
4	2947	125.910842352144	1
4	2962	126.575221289019	1
4	2976	126.975637289019	1
4	2991	128.613208877876	1
4	3005	129.013624877876	1
4	3019	129.414040877876	1
4	3034	130.119553082523	1
4	3049	130.548749566437	1
4	3063	130.949165566437	1
4	3078	131.39746100183	1
4	3093	132.52932778976	1
4	3108	132.953938195542	1
4	3123	133.463267560551	1
4	3137	133.863683560551	1
4	3152	134.974437009788	1
4	3167	136.50057783823	1
4	3182	137.070381819996	1
4	3196	137.470797819996	1
4	3210	137.871213819996	1
4	3225	138.807943759925	1
4	3240	140.729447051547	1
4	3255	141.33056633517	1
4	3269	141.73098233517	1
4	3283	142.13139833517	1
4	3298	142.859807614452	1
4	3313	143.700268716725	1
4	3327	144.100684716725	1
4	3341	144.501100716725	1
4	3356	145.063741725147	1
4	3371	146.128491423181	1
4	3385	146.528907423181	1
4	3400	146.964175336344	1
4	3414	147.364591336344	1
4	3429	148.432006561336	1
4	3444	150.114191787862	1
4	3459	150.703883254684	1
4	3474	151.147813959902	1
4	3489	151.793768594302	1
4	3504	152.33268603637	1
4	3518	152.73310203637	1
4	3532	153.13351803637	1
4	3547	154.696252215199	1
4	3561	155.096668215199	1
4	3576	155.613066720522	1
4	3590	156.013482720522	1
4	3604	156.413898720522	1
4	3619	156.896125503269	1
4	3634	157.362326943472	1
4	3648	157.762742943472	1
4	3662	158.163158943472	1
4	3676	158.563574943472	1
4	3690	158.963990943472	1
4	3705	159.593512702104	1
4	3720	160.133172801432	1
4	3734	160.533588801432	1
4	3748	160.934004801432	1
4	3762	161.334420801432	1
4	3777	161.815608329318	1
4	3792	162.507097932586	1
4	3806	162.907513932586	1
4	3821	163.961237735061	1
4	3835	164.361653735061	1
4	3849	164.762069735061	1
4	3863	165.162485735061	1
4	3877	165.562901735061	1
4	3892	165.984845971356	1
4	3906	166.385261971356	1
4	3921	166.832126510509	1
4	3936	167.233402503388	1
4	3951	167.66044237121	1
4	3965	168.06085837121	1
4	3980	168.590363063901	1
4	3995	170.326630803542	1
4	4010	170.854555607872	1
4	4024	171.254971607872	1
4	4038	171.655387607872	1
4	4052	172.055803607872	1
4	4067	173.190120604218	1
4	4081	173.590536604218	1
4	4095	173.990952604218	1
4	4109	174.391368604218	1
4	4123	174.791784604218	1
4	4138	176.860689484473	1
4	4153	177.973146813086	1
4	4167	178.373562813086	1
4	4182	179.194011602049	1
4	4196	179.594427602049	1
4	4211	180.202937349718	1
4	4225	180.603353349718	1
4	4239	181.003769349718	1
4	4253	181.404185349718	1
4	4268	182.66382641476	1
4	4282	183.06424241476	1
4	4297	183.690546177216	1
4	4311	184.090962177216	1
4	4326	187.473657437185	1
4	4341	188.393523829724	1
4	4355	188.793939829724	1
4	4370	189.969028474599	1
4	4385	190.981982883151	1
4	4399	191.382398883151	1
4	4413	191.782814883151	1
4	4427	192.183230883151	1
4	4442	192.661214095112	1
4	4456	193.061630095112	1
4	4470	193.462046095112	1
4	4485	194.216957822917	1
4	4500	195.15892226621	1
4	4515	196.159915513973	1
4	4530	196.983275064636	1
4	4544	197.383691064636	1
4	4559	197.804631545502	1
4	4573	198.205047545502	1
4	4587	198.605463545502	1
4	4601	199.005879545502	1
4	4615	199.406295545502	1
5	9	0.698137252283	0
5	24	1.147417446525	1
5	39	1.775382825549	2
5	54	2.705184931586	3
5	69	3.166796497321	4
5	84	4.142569165263	5
5	98	4.542985165263	6
5	113	5.482467192364	7
5	127	5.882883192364	8
5	142	6.371386405561	9
5	157	6.890466055893	10
5	171	7.290882055893	11
5	185	7.691298055893	12
5	199	8.091714055893	13
5	214	9.203476266911	14
5	228	9.603892266911	15
5	243	11.261348406875	16
5	257	11.661764406875	17
5	271	12.062180406875	18
5	285	12.462596406875	19
5	300	13.247044465687	20
5	315	14.083150065849	21
5	329	14.483566065849	22
5	343	14.883982065849	23
5	358	15.303698492299	24
5	372	15.704114492299	25
5	387	17.003241535223	26
5	402	17.90742616736	27
5	416	18.30784216736	28
5	430	18.70825816736	29
5	444	19.10867416736	30
5	459	19.630980421514	31
5	473	20.031396421514	32
5	487	20.431812421514	33
5	502	21.325556253233	34
5	517	22.900641217571	35
5	532	23.65353334689	36
5	546	24.05394934689	37
5	561	25.074106475861	38
5	576	26.094552583817	39
5	591	28.017163518388	40
5	605	28.417579518388	41
5	620	29.220199296919	42
5	635	30.027200334365	43
5	649	30.427616334365	44
5	663	30.828032334365	45
5	678	31.58630032136	46
5	693	32.154269792215	47
5	707	32.554685792215	48
5	722	33.192299643327	49
5	737	33.703015580502	50
5	752	34.139176178023	51
5	766	34.539592178023	52
5	780	34.940008178023	53
5	795	36.387218417017	54
5	810	37.097900757064	55
5	824	37.498316757064	56
5	838	37.898732757064	57
5	852	38.299148757064	58
5	866	38.699564757064	59
5	880	39.099980757064	60
5	894	39.500396757064	61
5	909	40.24452416994	62
5	924	40.912169262252	63
5	938	41.312585262252	64
5	952	41.713001262252	65
5	967	42.133168615058	66
5	981	42.533584615058	67
5	995	42.934000615058	68
5	1009	43.334416615058	69
5	1024	43.815107084591	70
5	1038	44.215523084591	71
5	1053	44.689021423178	72
5	1067	45.089437423178	73
5	1082	45.569211411862	74
5	1096	45.969627411862	75
5	1111	47.408584922501	76
5	1126	48.573041609608	77
5	1141	49.145611086958	78
5	1155	49.546027086958	79
5	1169	49.946443086958	80
5	1184	50.421190378706	81
5	1198	50.821606378706	82
5	1213	51.984781909553	83
5	1228	52.582835809282	84
5	1242	52.983251809282	85
5	1256	53.383667809282	86
5	1271	55.133774651509	87
5	1286	55.683230885284	88
5	1301	56.212647951028	89
5	1316	56.767946673872	90
5	1330	57.168362673872	91
5	1344	57.568778673872	92
5	1358	57.969194673872	93
5	1372	58.369610673872	94
5	1387	59.064132018768	95
5	1401	59.464548018768	96
5	1416	59.932578798654	97
5	1430	60.332994798654	98
5	1444	60.733410798654	99
5	1459	61.155624695418	100
5	1473	61.556040695418	101
5	1487	61.956456695418	102
5	1502	62.459392198001	103
5	1517	64.686640621089	104
5	1532	66.283113942116	105
5	1546	66.683529942116	106
5	1561	67.212443148792	107
5	1575	67.612859148792	108
5	1590	68.116868771502	109
5	1604	68.517284771502	110
5	1619	71.197334946624	111
5	1634	71.726706304171	112
5	1649	72.162664230984	113
5	1663	72.563080230984	114
5	1677	72.963496230984	115
5	1691	73.363912230984	116
5	1705	73.764328230984	117
5	1719	74.164744230984	118
5	1734	74.653176268019	119
5	1748	75.053592268019	120
5	1762	75.454008268019	121
5	1776	75.854424268019	122
5	1791	76.416008418786	123
5	1806	76.950044517361	124
5	1820	77.350460517361	125
5	1834	77.750876517361	126
5	1849	78.504194183997	127
5	1863	78.904610183997	128
5	1878	80.398205129923	129
5	1892	80.798621129923	130
5	1907	81.341755820362	131
5	1922	82.20192164922	132
5	1936	82.60233764922	133
5	1950	83.00275364922	134
5	1965	83.490304616298	135
5	1980	84.40021407594	136
5	1995	84.960121258817	137
5	2009	85.360537258817	138
5	2024	87.147331444989	139
5	2039	89.021847174781	140
5	2054	90.074507825177	141
5	2068	90.474923825177	142
5	2082	90.875339825177	143
5	2097	92.756303467429	144
5	2111	93.156719467429	145
5	2126	93.62095871588	146
5	2140	94.02137471588	147
5	2155	94.693497351956	148
5	2169	95.093913351956	149
5	2183	95.494329351956	150
5	2197	95.894745351956	151
5	2211	96.295161351956	152
5	2226	98.240946413379	153
5	2240	98.641362413379	154
5	2254	99.041778413379	155
5	2268	99.442194413379	156
5	2282	99.842610413379	157
5	2296	100.243026413379	158
5	2311	100.826463176653	159
5	2325	101.226879176653	160
5	2340	102.288997775154	161
5	2354	102.689413775154	162
5	2369	103.941369666697	163
5	2383	104.341785666697	164
5	2397	104.742201666697	165
5	2412	105.33179643023	166
5	2427	105.748218188263	167
5	2442	106.166266954248	168
5	2457	107.167887215502	169
5	2471	107.568303215502	170
5	2485	107.968719215502	171
5	2499	108.369135215502	172
5	2514	109.61192639399	173
5	2528	110.01234239399	174
5	2543	111.282494647969	175
5	2558	111.711442468506	176
5	2572	112.111858468506	177
5	2587	113.436486432844	178
5	2601	113.836902432844	179
5	2615	114.237318432844	180
5	2629	114.637734432844	181
5	2644	115.188157387889	182
5	2659	116.11182121339	183
5	2673	116.51223721339	184
5	2688	117.03312754048	185
5	2703	117.663094445534	186
5	2718	118.583735681278	187
5	2732	118.984151681278	188
5	2746	119.384567681278	189
5	2760	119.784983681278	190
5	2774	120.185399681278	191
5	2789	120.626964202258	192
5	2804	121.029362902159	193
5	2818	121.429778902159	194
5	2832	121.830194902159	195
5	2847	122.713065438366	196
5	2861	123.113481438366	197
5	2875	123.513897438366	198
5	2889	123.914313438366	199
5	2904	124.480630509352	200
5	2919	124.902172025426	201
5	2933	125.302588025426	202
5	2948	125.910842352144	203
5	2963	126.575221289019	204
5	2977	126.975637289019	205
5	2992	128.613208877876	206
5	3006	129.013624877876	207
5	3020	129.414040877876	208
5	3035	130.119553082523	209
5	3050	130.548749566437	210
5	3064	130.949165566437	211
5	3079	131.39746100183	212
5	3094	132.52932778976	213
5	3109	132.953938195542	214
5	3124	133.463267560551	215
5	3138	133.863683560551	216
5	3153	134.974437009788	217
5	3168	136.50057783823	218
5	3183	137.070381819996	219
5	3197	137.470797819996	220
5	3211	137.871213819996	221
5	3226	138.807943759925	222
5	3241	140.729447051547	223
5	3256	141.33056633517	224
5	3270	141.73098233517	225
5	3284	142.13139833517	226
5	3299	142.859807614452	227
5	3314	143.700268716725	228
5	3328	144.100684716725	229
5	3342	144.501100716725	230
5	3357	145.063741725147	231
5	3372	146.128491423181	232
5	3386	146.528907423181	233
5	3401	146.964175336344	234
5	3415	147.364591336344	235
5	3430	148.432006561336	236
5	3445	150.114191787862	237
5	3460	150.703883254684	238
5	3475	151.147813959902	239
5	3490	151.793768594302	240
5	3505	152.33268603637	241
5	3519	152.73310203637	242
5	3533	153.13351803637	243
5	3548	154.696252215199	244
5	3562	155.096668215199	245
5	3577	155.613066720522	246
5	3591	156.013482720522	247
5	3605	156.413898720522	248
5	3620	156.896125503269	249
5	3635	157.362326943472	250
5	3649	157.762742943472	251
5	3663	158.163158943472	252
5	3677	158.563574943472	253
5	3691	158.963990943472	254
5	3706	159.593512702104	255
5	3721	160.133172801432	256
5	3735	160.533588801432	257
5	3749	160.934004801432	258
5	3763	161.334420801432	259
5	3778	161.815608329318	260
5	3793	162.507097932586	261
5	3807	162.907513932586	262
5	3822	163.961237735061	263
5	3836	164.361653735061	264
5	3850	164.762069735061	265
5	3864	165.162485735061	266
5	3878	165.562901735061	267
5	3893	165.984845971356	268
5	3907	166.385261971356	269
5	3922	166.832126510509	270
5	3937	167.233402503388	271
5	3952	167.66044237121	272
5	3966	168.06085837121	273
5	3981	168.590363063901	274
5	3996	170.326630803542	275
5	4011	170.854555607872	276
5	4025	171.254971607872	277
5	4039	171.655387607872	278
5	4053	172.055803607872	279
5	4068	173.190120604218	280
5	4082	173.590536604218	281
5	4096	173.990952604218	282
5	4110	174.391368604218	283
5	4124	174.791784604218	284
5	4139	176.860689484473	285
5	4154	177.973146813086	286
5	4168	178.373562813086	287
5	4183	179.194011602049	288
5	4197	179.594427602049	289
5	4212	180.202937349718	290
5	4226	180.603353349718	291
5	4240	181.003769349718	292
5	4254	181.404185349718	293
5	4269	182.66382641476	294
5	4283	183.06424241476	295
5	4298	183.690546177216	296
5	4312	184.090962177216	297
5	4327	187.473657437185	298
5	4342	188.393523829724	299
5	4356	188.793939829724	300
5	4371	189.969028474599	301
5	4386	190.981982883151	302
5	4400	191.382398883151	303
5	4414	191.782814883151	304
5	4428	192.183230883151	305
5	4443	192.661214095112	306
5	4457	193.061630095112	307
5	4471	193.462046095112	308
5	4486	194.216957822917	309
5	4501	195.15892226621	310
5	4516	196.159915513973	311
5	4531	196.983275064636	312
5	4545	197.383691064636	313
5	4560	197.804631545502	314
5	4574	198.205047545502	315
5	4588	198.605463545502	316
5	4602	199.005879545502	317
5	4616	199.406295545502	318
6	10	0.798137252283	0.4002
6	25	1.247417446525	0.4002
6	40	1.875382825549	0.4002
6	55	2.805184931586	0.4002
6	70	3.266796497321	0.4002
6	85	4.242569165263	0.4002
6	99	4.642985165263	0.4002
6	114	5.582467192364	0.4002
6	128	5.982883192364	0.4002
6	143	6.471386405561	0.4002
6	158	6.990466055893	0.4002
6	172	7.390882055893	0.4002
6	186	7.791298055893	0.4002
6	200	8.191714055893	0.4002
6	215	9.303476266911	0.4002
6	229	9.703892266911	0.4002
6	244	11.361348406875	0.4002
6	258	11.761764406875	0.4002
6	272	12.162180406875	0.4002
6	286	12.562596406875	0.4002
6	301	13.347044465687	0.4002
6	316	14.183150065849	0.4002
6	330	14.583566065849	0.4002
6	344	14.983982065849	0.4002
6	359	15.403698492299	0.4002
6	373	15.804114492299	0.4002
6	388	17.103241535223	0.4002
6	403	18.00742616736	0.4002
6	417	18.40784216736	0.4002
6	431	18.80825816736	0.4002
6	445	19.20867416736	0.4002
6	460	19.730980421514	0.4002
6	474	20.131396421514	0.4002
6	488	20.531812421514	0.4002
6	503	21.425556253233	0.4002
6	518	23.000641217571	0.4002
6	533	23.75353334689	0.4002
6	547	24.15394934689	0.4002
6	562	25.174106475861	0.4002
6	577	26.194552583817	0.4002
6	592	28.117163518388	0.4002
6	606	28.517579518388	0.4002
6	621	29.320199296919	0.4002
6	636	30.127200334365	0.4002
6	650	30.527616334365	0.4002
6	664	30.928032334365	0.4002
6	679	31.68630032136	0.4002
6	694	32.254269792215	0.4002
6	708	32.654685792215	0.4002
6	723	33.292299643327	0.4002
6	738	33.803015580502	0.4002
6	753	34.239176178023	0.4002
6	767	34.639592178023	0.4002
6	781	35.040008178023	0.4002
6	796	36.487218417017	0.4002
6	811	37.197900757064	0.4002
6	825	37.598316757064	0.4002
6	839	37.998732757064	0.4002
6	853	38.399148757064	0.4002
6	867	38.799564757064	0.4002
6	881	39.199980757064	0.4002
6	895	39.600396757064	0.4002
6	910	40.34452416994	0.4002
6	925	41.012169262252	0.4002
6	939	41.412585262252	0.4002
6	953	41.813001262252	0.4002
6	968	42.233168615058	0.4002
6	982	42.633584615058	0.4002
6	996	43.034000615058	0.4002
6	1010	43.434416615058	0.4002
6	1025	43.915107084591	0.4002
6	1039	44.315523084591	0.4002
6	1054	44.789021423178	0.4002
6	1068	45.189437423178	0.4002
6	1083	45.669211411862	0.4002
6	1097	46.069627411862	0.4002
6	1112	47.508584922501	0.4002
6	1127	48.673041609608	0.4002
6	1142	49.245611086958	0.4002
6	1156	49.646027086958	0.4002
6	1170	50.046443086958	0.4002
6	1185	50.521190378706	0.4002
6	1199	50.921606378706	0.4002
6	1214	52.084781909553	0.4002
6	1229	52.682835809282	0.4002
6	1243	53.083251809282	0.4002
6	1257	53.483667809282	0.4002
6	1272	55.233774651509	0.4002
6	1287	55.783230885284	0.4002
6	1302	56.312647951028	0.4002
6	1317	56.867946673872	0.4002
6	1331	57.268362673872	0.4002
6	1345	57.668778673872	0.4002
6	1359	58.069194673872	0.4002
6	1373	58.469610673872	0.4002
6	1388	59.164132018768	0.4002
6	1402	59.564548018768	0.4002
6	1417	60.032578798654	0.4002
6	1431	60.432994798654	0.4002
6	1445	60.833410798654	0.4002
6	1460	61.255624695418	0.4002
6	1474	61.656040695418	0.4002
6	1488	62.056456695418	0.4002
6	1503	62.559392198001	0.4002
6	1518	64.786640621089	0.4002
6	1533	66.383113942116	0.4002
6	1547	66.783529942116	0.4002
6	1562	67.312443148792	0.4002
6	1576	67.712859148792	0.4002
6	1591	68.216868771502	0.4002
6	1605	68.617284771502	0.4002
6	1620	71.297334946624	0.4002
6	1635	71.826706304171	0.4002
6	1650	72.262664230984	0.4002
6	1664	72.663080230984	0.4002
6	1678	73.063496230984	0.4002
6	1692	73.463912230984	0.4002
6	1706	73.864328230984	0.4002
6	1720	74.264744230984	0.4002
6	1735	74.753176268019	0.4002
6	1749	75.153592268019	0.4002
6	1763	75.554008268019	0.4002
6	1777	75.954424268019	0.4002
6	1792	76.516008418786	0.4002
6	1807	77.050044517361	0.4002
6	1821	77.450460517361	0.4002
6	1835	77.850876517361	0.4002
6	1850	78.604194183997	0.4002
6	1864	79.004610183997	0.4002
6	1879	80.498205129923	0.4002
6	1893	80.898621129923	0.4002
6	1908	81.441755820362	0.4002
6	1923	82.30192164922	0.4002
6	1937	82.70233764922	0.4002
6	1951	83.10275364922	0.4002
6	1966	83.590304616298	0.4002
6	1981	84.50021407594	0.4002
6	1996	85.060121258817	0.4002
6	2010	85.460537258817	0.4002
6	2025	87.247331444989	0.4002
6	2040	89.121847174781	0.4002
6	2055	90.174507825177	0.4002
6	2069	90.574923825177	0.4002
6	2083	90.975339825177	0.4002
6	2098	92.856303467429	0.4002
6	2112	93.256719467429	0.4002
6	2127	93.72095871588	0.4002
6	2141	94.12137471588	0.4002
6	2156	94.793497351956	0.4002
6	2170	95.193913351956	0.4002
6	2184	95.594329351956	0.4002
6	2198	95.994745351956	0.4002
6	2212	96.395161351956	0.4002
6	2227	98.340946413379	0.4002
6	2241	98.741362413379	0.4002
6	2255	99.141778413379	0.4002
6	2269	99.542194413379	0.4002
6	2283	99.942610413379	0.4002
6	2297	100.343026413379	0.4002
6	2312	100.926463176653	0.4002
6	2326	101.326879176653	0.4002
6	2341	102.388997775154	0.4002
6	2355	102.789413775154	0.4002
6	2370	104.041369666697	0.4002
6	2384	104.441785666697	0.4002
6	2398	104.842201666697	0.4002
6	2413	105.43179643023	0.4002
6	2428	105.848218188263	0.4002
6	2443	106.266266954248	0.4002
6	2458	107.267887215502	0.4002
6	2472	107.668303215502	0.4002
6	2486	108.068719215502	0.4002
6	2500	108.469135215502	0.4002
6	2515	109.71192639399	0.4002
6	2529	110.11234239399	0.4002
6	2544	111.382494647969	0.4002
6	2559	111.811442468506	0.4002
6	2573	112.211858468506	0.4002
6	2588	113.536486432844	0.4002
6	2602	113.936902432844	0.4002
6	2616	114.337318432844	0.4002
6	2630	114.737734432844	0.4002
6	2645	115.288157387889	0.4002
6	2660	116.21182121339	0.4002
6	2674	116.61223721339	0.4002
6	2689	117.13312754048	0.4002
6	2704	117.763094445534	0.4002
6	2719	118.683735681278	0.4002
6	2733	119.084151681278	0.4002
6	2747	119.484567681278	0.4002
6	2761	119.884983681278	0.4002
6	2775	120.285399681278	0.4002
6	2790	120.726964202258	0.4002
6	2805	121.129362902159	0.4002
6	2819	121.529778902159	0.4002
6	2833	121.930194902159	0.4002
6	2848	122.813065438366	0.4002
6	2862	123.213481438366	0.4002
6	2876	123.613897438366	0.4002
6	2890	124.014313438366	0.4002
6	2905	124.580630509352	0.4002
6	2920	125.002172025426	0.4002
6	2934	125.402588025426	0.4002
6	2949	126.010842352144	0.4002
6	2964	126.675221289019	0.4002
6	2978	127.075637289019	0.4002
6	2993	128.713208877876	0.4002
6	3007	129.113624877876	0.4002
6	3021	129.514040877876	0.4002
6	3036	130.219553082523	0.4002
6	3051	130.648749566437	0.4002
6	3065	131.049165566437	0.4002
6	3080	131.49746100183	0.4002
6	3095	132.62932778976	0.4002
6	3110	133.053938195542	0.4002
6	3125	133.563267560551	0.4002
6	3139	133.963683560551	0.4002
6	3154	135.074437009788	0.4002
6	3169	136.60057783823	0.4002
6	3184	137.170381819996	0.4002
6	3198	137.570797819996	0.4002
6	3212	137.971213819996	0.4002
6	3227	138.907943759925	0.4002
6	3242	140.829447051547	0.4002
6	3257	141.43056633517	0.4002
6	3271	141.83098233517	0.4002
6	3285	142.23139833517	0.4002
6	3300	142.959807614452	0.4002
6	3315	143.800268716725	0.4002
6	3329	144.200684716725	0.4002
6	3343	144.601100716725	0.4002
6	3358	145.163741725147	0.4002
6	3373	146.228491423181	0.4002
6	3387	146.628907423181	0.4002
6	3402	147.064175336344	0.4002
6	3416	147.464591336344	0.4002
6	3431	148.532006561336	0.4002
6	3446	150.214191787862	0.4002
6	3461	150.803883254684	0.4002
6	3476	151.247813959902	0.4002
6	3491	151.893768594302	0.4002
6	3506	152.43268603637	0.4002
6	3520	152.83310203637	0.4002
6	3534	153.23351803637	0.4002
6	3549	154.796252215199	0.4002
6	3563	155.196668215199	0.4002
6	3578	155.713066720522	0.4002
6	3592	156.113482720522	0.4002
6	3606	156.513898720522	0.4002
6	3621	156.996125503269	0.4002
6	3636	157.462326943472	0.4002
6	3650	157.862742943472	0.4002
6	3664	158.263158943472	0.4002
6	3678	158.663574943472	0.4002
6	3692	159.063990943472	0.4002
6	3707	159.693512702104	0.4002
6	3722	160.233172801432	0.4002
6	3736	160.633588801432	0.4002
6	3750	161.034004801432	0.4002
6	3764	161.434420801432	0.4002
6	3779	161.915608329318	0.4002
6	3794	162.607097932586	0.4002
6	3808	163.007513932586	0.4002
6	3823	164.061237735061	0.4002
6	3837	164.461653735061	0.4002
6	3851	164.862069735061	0.4002
6	3865	165.262485735061	0.4002
6	3879	165.662901735061	0.4002
6	3894	166.084845971356	0.4002
6	3908	166.485261971356	0.4002
6	3923	166.932126510509	0.4002
6	3938	167.333402503388	0.4002
6	3953	167.76044237121	0.4002
6	3967	168.16085837121	0.4002
6	3982	168.690363063901	0.4002
6	3997	170.426630803542	0.4002
6	4012	170.954555607872	0.4002
6	4026	171.354971607872	0.4002
6	4040	171.755387607872	0.4002
6	4054	172.155803607872	0.4002
6	4069	173.290120604218	0.4002
6	4083	173.690536604218	0.4002
6	4097	174.090952604218	0.4002
6	4111	174.491368604218	0.4002
6	4125	174.891784604218	0.4002
6	4140	176.960689484473	0.4002
6	4155	178.073146813086	0.4002
6	4169	178.473562813086	0.4002
6	4184	179.294011602049	0.4002
6	4198	179.694427602049	0.4002
6	4213	180.302937349718	0.4002
6	4227	180.703353349718	0.4002
6	4241	181.103769349718	0.4002
6	4255	181.504185349718	0.4002
6	4270	182.76382641476	0.4002
6	4284	183.16424241476	0.4002
6	4299	183.790546177216	0.4002
6	4313	184.190962177216	0.4002
6	4328	187.573657437185	0.4002
6	4343	188.493523829724	0.4002
6	4357	188.893939829724	0.4002
6	4372	190.069028474599	0.4002
6	4387	191.081982883151	0.4002
6	4401	191.482398883151	0.4002
6	4415	191.882814883151	0.4002
6	4429	192.283230883151	0.4002
6	4444	192.761214095112	0.4002
6	4458	193.161630095112	0.4002
6	4472	193.562046095112	0.4002
6	4487	194.316957822917	0.4002
6	4502	195.25892226621	0.4002
6	4517	196.259915513973	0.4002
6	4532	197.083275064636	0.4002
6	4546	197.483691064636	0.4002
6	4561	197.904631545502	0.4002
6	4575	198.305047545502	0.4002
6	4589	198.705463545502	0.4002
6	4603	199.105879545502	0.4002
6	4617	199.506295545502	0.4002
7	12	0.798245252283	1
7	27	1.247525446525	1
7	42	1.875490825549	1
7	57	2.805292931586	1
7	72	3.266904497321	1
7	87	4.242677165263	1
7	101	4.643093165263	1
7	116	5.582575192364	1
7	130	5.982991192364	1
7	145	6.471494405561	1
7	160	6.990574055893	1
7	174	7.390990055893	1
7	188	7.791406055893	1
7	202	8.191822055893	1
7	217	9.303584266911	1
7	231	9.704000266911	1
7	246	11.361456406875	1
7	260	11.761872406875	1
7	274	12.162288406875	1
7	288	12.562704406875	1
7	303	13.347152465687	1
7	318	14.183258065849	1
7	332	14.583674065849	1
7	346	14.984090065849	1
7	361	15.403806492299	1
7	375	15.804222492299	1
7	390	17.103349535223	1
7	405	18.00753416736	1
7	419	18.40795016736	1
7	433	18.80836616736	1
7	447	19.20878216736	1
7	462	19.731088421514	1
7	476	20.131504421514	1
7	490	20.531920421514	1
7	505	21.425664253233	1
7	520	23.000749217571	1
7	535	23.75364134689	1
7	549	24.15405734689	1
7	564	25.174214475861	1
7	579	26.194660583817	1
7	594	28.117271518388	1
7	608	28.517687518388	1
7	623	29.320307296919	1
7	638	30.127308334365	1
7	652	30.527724334365	1
7	666	30.928140334365	1
7	681	31.68640832136	1
7	696	32.254377792215	1
7	710	32.654793792215	1
7	725	33.292407643327	1
7	740	33.803123580502	1
7	755	34.239284178023	1
7	769	34.639700178023	1
7	783	35.040116178023	1
7	798	36.487326417017	1
7	813	37.198008757064	1
7	827	37.598424757064	1
7	841	37.998840757064	1
7	855	38.399256757064	1
7	869	38.799672757064	1
7	883	39.200088757064	1
7	897	39.600504757064	1
7	912	40.34463216994	1
7	927	41.012277262252	1
7	941	41.412693262252	1
7	955	41.813109262252	1
7	970	42.233276615058	1
7	984	42.633692615058	1
7	998	43.034108615058	1
7	1012	43.434524615058	1
7	1027	43.915215084591	1
7	1041	44.315631084591	1
7	1056	44.789129423178	1
7	1070	45.189545423178	1
7	1085	45.669319411862	1
7	1099	46.069735411862	1
7	1114	47.508692922501	1
7	1129	48.673149609608	1
7	1144	49.245719086958	1
7	1158	49.646135086958	1
7	1172	50.046551086958	1
7	1187	50.521298378706	1
7	1201	50.921714378706	1
7	1216	52.084889909553	1
7	1231	52.682943809282	1
7	1245	53.083359809282	1
7	1259	53.483775809282	1
7	1274	55.233882651509	1
7	1289	55.783338885284	1
7	1304	56.312755951028	1
7	1319	56.868054673872	1
7	1333	57.268470673872	1
7	1347	57.668886673872	1
7	1361	58.069302673872	1
7	1375	58.469718673872	1
7	1390	59.164240018768	1
7	1404	59.564656018768	1
7	1419	60.032686798654	1
7	1433	60.433102798654	1
7	1447	60.833518798654	1
7	1462	61.255732695418	1
7	1476	61.656148695418	1
7	1490	62.056564695418	1
7	1505	62.559500198001	1
7	1520	64.786748621089	1
7	1535	66.383221942116	1
7	1549	66.783637942116	1
7	1564	67.312551148792	1
7	1578	67.712967148792	1
7	1593	68.216976771502	1
7	1607	68.617392771502	1
7	1622	71.297442946624	1
7	1637	71.826814304171	1
7	1652	72.262772230984	1
7	1666	72.663188230984	1
7	1680	73.063604230984	1
7	1694	73.464020230984	1
7	1708	73.864436230984	1
7	1722	74.264852230984	1
7	1737	74.753284268019	1
7	1751	75.153700268019	1
7	1765	75.554116268019	1
7	1779	75.954532268019	1
7	1794	76.516116418786	1
7	1809	77.050152517361	1
7	1823	77.450568517361	1
7	1837	77.850984517361	1
7	1852	78.604302183997	1
7	1866	79.004718183997	1
7	1881	80.498313129923	1
7	1895	80.898729129923	1
7	1910	81.441863820362	1
7	1925	82.30202964922	1
7	1939	82.70244564922	1
7	1953	83.10286164922	1
7	1968	83.590412616298	1
7	1983	84.50032207594	1
7	1998	85.060229258817	1
7	2012	85.460645258817	1
7	2027	87.247439444989	1
7	2042	89.121955174781	1
7	2057	90.174615825177	1
7	2071	90.575031825177	1
7	2085	90.975447825177	1
7	2100	92.856411467429	1
7	2114	93.256827467429	1
7	2129	93.72106671588	1
7	2143	94.12148271588	1
7	2158	94.793605351956	1
7	2172	95.194021351956	1
7	2186	95.594437351956	1
7	2200	95.994853351956	1
7	2214	96.395269351956	1
7	2229	98.341054413379	1
7	2243	98.741470413379	1
7	2257	99.141886413379	1
7	2271	99.542302413379	1
7	2285	99.942718413379	1
7	2299	100.343134413379	1
7	2314	100.926571176653	1
7	2328	101.326987176653	1
7	2343	102.389105775154	1
7	2357	102.789521775154	1
7	2372	104.041477666697	1
7	2386	104.441893666697	1
7	2400	104.842309666697	1
7	2415	105.43190443023	1
7	2430	105.848326188263	1
7	2445	106.266374954248	1
7	2460	107.267995215502	1
7	2474	107.668411215502	1
7	2488	108.068827215502	1
7	2502	108.469243215502	1
7	2517	109.71203439399	1
7	2531	110.11245039399	1
7	2546	111.382602647969	1
7	2561	111.811550468506	1
7	2575	112.211966468506	1
7	2590	113.536594432844	1
7	2604	113.937010432844	1
7	2618	114.337426432844	1
7	2632	114.737842432844	1
7	2647	115.288265387889	1
7	2662	116.21192921339	1
7	2676	116.61234521339	1
7	2691	117.13323554048	1
7	2706	117.763202445534	1
7	2721	118.683843681278	1
7	2735	119.084259681278	1
7	2749	119.484675681278	1
7	2763	119.885091681278	1
7	2777	120.285507681278	1
7	2792	120.727072202258	1
7	2807	121.129470902159	1
7	2821	121.529886902159	1
7	2835	121.930302902159	1
7	2850	122.813173438366	1
7	2864	123.213589438366	1
7	2878	123.614005438366	1
7	2892	124.014421438366	1
7	2907	124.580738509352	1
7	2922	125.002280025426	1
7	2936	125.402696025426	1
7	2951	126.010950352144	1
7	2966	126.675329289019	1
7	2980	127.075745289019	1
7	2995	128.713316877876	1
7	3009	129.113732877876	1
7	3023	129.514148877876	1
7	3038	130.219661082523	1
7	3053	130.648857566437	1
7	3067	131.049273566437	1
7	3082	131.49756900183	1
7	3097	132.62943578976	1
7	3112	133.054046195542	1
7	3127	133.563375560551	1
7	3141	133.963791560551	1
7	3156	135.074545009788	1
7	3171	136.60068583823	1
7	3186	137.170489819996	1
7	3200	137.570905819996	1
7	3214	137.971321819996	1
7	3229	138.908051759925	1
7	3244	140.829555051547	1
7	3259	141.43067433517	1
7	3273	141.83109033517	1
7	3287	142.23150633517	1
7	3302	142.959915614452	1
7	3317	143.800376716725	1
7	3331	144.200792716725	1
7	3345	144.601208716725	1
7	3360	145.163849725147	1
7	3375	146.228599423181	1
7	3389	146.629015423181	1
7	3404	147.064283336344	1
7	3418	147.464699336344	1
7	3433	148.532114561336	1
7	3448	150.214299787862	1
7	3463	150.803991254684	1
7	3478	151.247921959902	1
7	3493	151.893876594302	1
7	3508	152.43279403637	1
7	3522	152.83321003637	1
7	3536	153.23362603637	1
7	3551	154.796360215199	1
7	3565	155.196776215199	1
7	3580	155.713174720522	1
7	3594	156.113590720522	1
7	3608	156.514006720522	1
7	3623	156.996233503269	1
7	3638	157.462434943472	1
7	3652	157.862850943472	1
7	3666	158.263266943472	1
7	3680	158.663682943472	1
7	3694	159.064098943472	1
7	3709	159.693620702104	1
7	3724	160.233280801432	1
7	3738	160.633696801432	1
7	3752	161.034112801432	1
7	3766	161.434528801432	1
7	3781	161.915716329318	1
7	3796	162.607205932586	1
7	3810	163.007621932586	1
7	3825	164.061345735061	1
7	3839	164.461761735061	1
7	3853	164.862177735061	1
7	3867	165.262593735061	1
7	3881	165.663009735061	1
7	3896	166.084953971356	1
7	3910	166.485369971356	1
7	3925	166.932234510509	1
7	3940	167.333510503388	1
7	3955	167.76055037121	1
7	3969	168.16096637121	1
7	3984	168.690471063901	1
7	3999	170.426738803542	1
7	4014	170.954663607872	1
7	4028	171.355079607872	1
7	4042	171.755495607872	1
7	4056	172.155911607872	1
7	4071	173.290228604218	1
7	4085	173.690644604218	1
7	4099	174.091060604218	1
7	4113	174.491476604218	1
7	4127	174.891892604218	1
7	4142	176.960797484473	1
7	4157	178.073254813086	1
7	4171	178.473670813086	1
7	4186	179.294119602049	1
7	4200	179.694535602049	1
7	4215	180.303045349718	1
7	4229	180.703461349718	1
7	4243	181.103877349718	1
7	4257	181.504293349718	1
7	4272	182.76393441476	1
7	4286	183.16435041476	1
7	4301	183.790654177216	1
7	4315	184.191070177216	1
7	4330	187.573765437185	1
7	4345	188.493631829724	1
7	4359	188.894047829724	1
7	4374	190.069136474599	1
7	4389	191.082090883151	1
7	4403	191.482506883151	1
7	4417	191.882922883151	1
7	4431	192.283338883151	1
7	4446	192.761322095112	1
7	4460	193.161738095112	1
7	4474	193.562154095112	1
7	4489	194.317065822917	1
7	4504	195.25903026621	1
7	4519	196.260023513973	1
7	4534	197.083383064636	1
7	4548	197.483799064636	1
7	4563	197.904739545502	1
7	4577	198.305155545502	1
7	4591	198.705571545502	1
7	4605	199.105987545502	1
7	4619	199.506403545502	1
8	13	0.798245252283	0
8	28	1.247525446525	1
8	43	1.875490825549	2
8	58	2.805292931586	3
8	73	3.266904497321	4
8	88	4.242677165263	5
8	102	4.643093165263	6
8	117	5.582575192364	7
8	131	5.982991192364	8
8	146	6.471494405561	9
8	161	6.990574055893	10
8	175	7.390990055893	11
8	189	7.791406055893	12
8	203	8.191822055893	13
8	218	9.303584266911	14
8	232	9.704000266911	15
8	247	11.361456406875	16
8	261	11.761872406875	17
8	275	12.162288406875	18
8	289	12.562704406875	19
8	304	13.347152465687	20
8	319	14.183258065849	21
8	333	14.583674065849	22
8	347	14.984090065849	23
8	362	15.403806492299	24
8	376	15.804222492299	25
8	391	17.103349535223	26
8	406	18.00753416736	27
8	420	18.40795016736	28
8	434	18.80836616736	29
8	448	19.20878216736	30
8	463	19.731088421514	31
8	477	20.131504421514	32
8	491	20.531920421514	33
8	506	21.425664253233	34
8	521	23.000749217571	35
8	536	23.75364134689	36
8	550	24.15405734689	37
8	565	25.174214475861	38
8	580	26.194660583817	39
8	595	28.117271518388	40
8	609	28.517687518388	41
8	624	29.320307296919	42
8	639	30.127308334365	43
8	653	30.527724334365	44
8	667	30.928140334365	45
8	682	31.68640832136	46
8	697	32.254377792215	47
8	711	32.654793792215	48
8	726	33.292407643327	49
8	741	33.803123580502	50
8	756	34.239284178023	51
8	770	34.639700178023	52
8	784	35.040116178023	53
8	799	36.487326417017	54
8	814	37.198008757064	55
8	828	37.598424757064	56
8	842	37.998840757064	57
8	856	38.399256757064	58
8	870	38.799672757064	59
8	884	39.200088757064	60
8	898	39.600504757064	61
8	913	40.34463216994	62
8	928	41.012277262252	63
8	942	41.412693262252	64
8	956	41.813109262252	65
8	971	42.233276615058	66
8	985	42.633692615058	67
8	999	43.034108615058	68
8	1013	43.434524615058	69
8	1028	43.915215084591	70
8	1042	44.315631084591	71
8	1057	44.789129423178	72
8	1071	45.189545423178	73
8	1086	45.669319411862	74
8	1100	46.069735411862	75
8	1115	47.508692922501	76
8	1130	48.673149609608	77
8	1145	49.245719086958	78
8	1159	49.646135086958	79
8	1173	50.046551086958	80
8	1188	50.521298378706	81
8	1202	50.921714378706	82
8	1217	52.084889909553	83
8	1232	52.682943809282	84
8	1246	53.083359809282	85
8	1260	53.483775809282	86
8	1275	55.233882651509	87
8	1290	55.783338885284	88
8	1305	56.312755951028	89
8	1320	56.868054673872	90
8	1334	57.268470673872	91
8	1348	57.668886673872	92
8	1362	58.069302673872	93
8	1376	58.469718673872	94
8	1391	59.164240018768	95
8	1405	59.564656018768	96
8	1420	60.032686798654	97
8	1434	60.433102798654	98
8	1448	60.833518798654	99
8	1463	61.255732695418	100
8	1477	61.656148695418	101
8	1491	62.056564695418	102
8	1506	62.559500198001	103
8	1521	64.786748621089	104
8	1536	66.383221942116	105
8	1550	66.783637942116	106
8	1565	67.312551148792	107
8	1579	67.712967148792	108
8	1594	68.216976771502	109
8	1608	68.617392771502	110
8	1623	71.297442946624	111
8	1638	71.826814304171	112
8	1653	72.262772230984	113
8	1667	72.663188230984	114
8	1681	73.063604230984	115
8	1695	73.464020230984	116
8	1709	73.864436230984	117
8	1723	74.264852230984	118
8	1738	74.753284268019	119
8	1752	75.153700268019	120
8	1766	75.554116268019	121
8	1780	75.954532268019	122
8	1795	76.516116418786	123
8	1810	77.050152517361	124
8	1824	77.450568517361	125
8	1838	77.850984517361	126
8	1853	78.604302183997	127
8	1867	79.004718183997	128
8	1882	80.498313129923	129
8	1896	80.898729129923	130
8	1911	81.441863820362	131
8	1926	82.30202964922	132
8	1940	82.70244564922	133
8	1954	83.10286164922	134
8	1969	83.590412616298	135
8	1984	84.50032207594	136
8	1999	85.060229258817	137
8	2013	85.460645258817	138
8	2028	87.247439444989	139
8	2043	89.121955174781	140
8	2058	90.174615825177	141
8	2072	90.575031825177	142
8	2086	90.975447825177	143
8	2101	92.856411467429	144
8	2115	93.256827467429	145
8	2130	93.72106671588	146
8	2144	94.12148271588	147
8	2159	94.793605351956	148
8	2173	95.194021351956	149
8	2187	95.594437351956	150
8	2201	95.994853351956	151
8	2215	96.395269351956	152
8	2230	98.341054413379	153
8	2244	98.741470413379	154
8	2258	99.141886413379	155
8	2272	99.542302413379	156
8	2286	99.942718413379	157
8	2300	100.343134413379	158
8	2315	100.926571176653	159
8	2329	101.326987176653	160
8	2344	102.389105775154	161
8	2358	102.789521775154	162
8	2373	104.041477666697	163
8	2387	104.441893666697	164
8	2401	104.842309666697	165
8	2416	105.43190443023	166
8	2431	105.848326188263	167
8	2446	106.266374954248	168
8	2461	107.267995215502	169
8	2475	107.668411215502	170
8	2489	108.068827215502	171
8	2503	108.469243215502	172
8	2518	109.71203439399	173
8	2532	110.11245039399	174
8	2547	111.382602647969	175
8	2562	111.811550468506	176
8	2576	112.211966468506	177
8	2591	113.536594432844	178
8	2605	113.937010432844	179
8	2619	114.337426432844	180
8	2633	114.737842432844	181
8	2648	115.288265387889	182
8	2663	116.21192921339	183
8	2677	116.61234521339	184
8	2692	117.13323554048	185
8	2707	117.763202445534	186
8	2722	118.683843681278	187
8	2736	119.084259681278	188
8	2750	119.484675681278	189
8	2764	119.885091681278	190
8	2778	120.285507681278	191
8	2793	120.727072202258	192
8	2808	121.129470902159	193
8	2822	121.529886902159	194
8	2836	121.930302902159	195
8	2851	122.813173438366	196
8	2865	123.213589438366	197
8	2879	123.614005438366	198
8	2893	124.014421438366	199
8	2908	124.580738509352	200
8	2923	125.002280025426	201
8	2937	125.402696025426	202
8	2952	126.010950352144	203
8	2967	126.675329289019	204
8	2981	127.075745289019	205
8	2996	128.713316877876	206
8	3010	129.113732877876	207
8	3024	129.514148877876	208
8	3039	130.219661082523	209
8	3054	130.648857566437	210
8	3068	131.049273566437	211
8	3083	131.49756900183	212
8	3098	132.62943578976	213
8	3113	133.054046195542	214
8	3128	133.563375560551	215
8	3142	133.963791560551	216
8	3157	135.074545009788	217
8	3172	136.60068583823	218
8	3187	137.170489819996	219
8	3201	137.570905819996	220
8	3215	137.971321819996	221
8	3230	138.908051759925	222
8	3245	140.829555051547	223
8	3260	141.43067433517	224
8	3274	141.83109033517	225
8	3288	142.23150633517	226
8	3303	142.959915614452	227
8	3318	143.800376716725	228
8	3332	144.200792716725	229
8	3346	144.601208716725	230
8	3361	145.163849725147	231
8	3376	146.228599423181	232
8	3390	146.629015423181	233
8	3405	147.064283336344	234
8	3419	147.464699336344	235
8	3434	148.532114561336	236
8	3449	150.214299787862	237
8	3464	150.803991254684	238
8	3479	151.247921959902	239
8	3494	151.893876594302	240
8	3509	152.43279403637	241
8	3523	152.83321003637	242
8	3537	153.23362603637	243
8	3552	154.796360215199	244
8	3566	155.196776215199	245
8	3581	155.713174720522	246
8	3595	156.113590720522	247
8	3609	156.514006720522	248
8	3624	156.996233503269	249
8	3639	157.462434943472	250
8	3653	157.862850943472	251
8	3667	158.263266943472	252
8	3681	158.663682943472	253
8	3695	159.064098943472	254
8	3710	159.693620702104	255
8	3725	160.233280801432	256
8	3739	160.633696801432	257
8	3753	161.034112801432	258
8	3767	161.434528801432	259
8	3782	161.915716329318	260
8	3797	162.607205932586	261
8	3811	163.007621932586	262
8	3826	164.061345735061	263
8	3840	164.461761735061	264
8	3854	164.862177735061	265
8	3868	165.262593735061	266
8	3882	165.663009735061	267
8	3897	166.084953971356	268
8	3911	166.485369971356	269
8	3926	166.932234510509	270
8	3941	167.333510503388	271
8	3956	167.76055037121	272
8	3970	168.16096637121	273
8	3985	168.690471063901	274
8	4000	170.426738803542	275
8	4015	170.954663607872	276
8	4029	171.355079607872	277
8	4043	171.755495607872	278
8	4057	172.155911607872	279
8	4072	173.290228604218	280
8	4086	173.690644604218	281
8	4100	174.091060604218	282
8	4114	174.491476604218	283
8	4128	174.891892604218	284
8	4143	176.960797484473	285
8	4158	178.073254813086	286
8	4172	178.473670813086	287
8	4187	179.294119602049	288
8	4201	179.694535602049	289
8	4216	180.303045349718	290
8	4230	180.703461349718	291
8	4244	181.103877349718	292
8	4258	181.504293349718	293
8	4273	182.76393441476	294
8	4287	183.16435041476	295
8	4302	183.790654177216	296
8	4316	184.191070177216	297
8	4331	187.573765437185	298
8	4346	188.493631829724	299
8	4360	188.894047829724	300
8	4375	190.069136474599	301
8	4390	191.082090883151	302
8	4404	191.482506883151	303
8	4418	191.882922883151	304
8	4432	192.283338883151	305
8	4447	192.761322095112	306
8	4461	193.161738095112	307
8	4475	193.562154095112	308
8	4490	194.317065822917	309
8	4505	195.25903026621	310
8	4520	196.260023513973	311
8	4535	197.083383064636	312
8	4549	197.483799064636	313
8	4564	197.904739545502	314
8	4578	198.305155545502	315
8	4592	198.705571545502	316
8	4606	199.105987545502	317
8	4620	199.506403545502	318

