version 2
run General-0-20220530-08:58:38-15805
attr configname General
attr datetime 20220530-08:58:38
attr experiment General
attr inifile omnetpp.ini
attr iterationvars ""
attr iterationvarsf ""
attr measurement ""
attr network Network
attr processid 15805
attr repetition 0
attr replication #0
attr resultdir results
attr runnumber 0
attr seedset 0
param Network.nodeTx.gen.generationInterval exponential(0.1)
param Network.**.serviceTime exponential(0.001)
param Network.nodeTx.gen.packetByteSize 12500
param Network.queue.bufferSize 200
param Network.nodeTx.queue.bufferSize 2000000
param Network.nodeRx.queue.bufferSize 200

vector 0 Network.nodeTx.queue bufferSize ETV
vector 1 Network.nodeTx.queue packetsSend ETV
vector 2 Network.queue bufferSize ETV
vector 3 Network.queue packetsSend ETV
vector 4 Network.nodeRx.queue bufferSize ETV
vector 5 Network.nodeRx.queue packetsSend ETV
vector 6 Network.nodeRx.sink Delay ETV
vector 7 Network.nodeRx.queue packetDrop ETV
0	2	0.079587450457	1
0	5	0.169443489305	1
0	15	0.29503656511	1
0	25	0.480996986317	1
0	30	0.573319299464	1
0	41	0.768473833052	1
0	46	0.84719394705	1
0	57	1.03509035247	1
0	64	1.090195201137	1
0	69	1.187895843776	1
0	77	1.291711773842	1
0	83	1.340224590214	1
0	85	1.397776509902	2
0	87	1.433092423816	3
0	103	1.65544486602	1
0	105	1.661283332929	2
0	123	1.992774560922	1
0	126	2.024610175006	1
0	130	2.072970385501	2
0	137	2.137915020326	2
0	149	2.294804632088	1
0	155	2.46202575212	1
0	163	2.537293163451	1
0	169	2.602681420173	1
0	173	2.686624705463	2
0	179	2.736511906365	2
0	195	2.99633731495	1
0	205	3.177174241377	1
0	208	3.184542776924	1
0	212	3.225700576548	2
0	214	3.23481667916	3
0	221	3.339277929991	3
0	223	3.341320488831	4
0	229	3.387245302557	4
0	237	3.565994068901	4
0	259	3.881011061769	1
0	265	4.031589487633	1
0	267	4.046712572999	2
0	279	4.250743998793	1
0	291	4.454833220384	1
0	305	4.839355407298	1
0	310	4.903526324566	1
0	319	5.064050280272	1
0	329	5.225450487761	1
0	336	5.287343433724	1
0	341	5.360839875843	1
0	349	5.512493473242	1
0	359	5.626087367413	1
0	362	5.638674808357	1
0	371	5.766197578579	1
0	377	5.868340766014	1
0	385	5.955572885518	1
0	387	5.971045853568	2
0	393	6.048129319415	2
0	411	6.337571367214	1
0	419	6.479707835223	1
0	426	6.553490564399	1
0	428	6.564685180462	2
0	433	6.618241752485	2
0	441	6.682411222688	2
0	443	6.713139257903	3
0	445	6.733759586106	4
0	457	6.882585068681	3
0	463	7.016114087143	3
0	465	7.077022329461	4
0	473	7.101427178535	4
0	479	7.185460649096	4
0	481	7.199988451825	5
0	483	7.201885308745	6
0	485	7.241062389813	7
0	493	7.33720048372	7
0	495	7.353414132665	8
0	501	7.448113800382	8
0	503	7.473257993589	9
0	511	7.569212791326	9
0	517	7.618068496257	9
0	535	7.905859998385	7
0	547	8.138751335806	6
0	553	8.253265231276	6
0	561	8.313039838958	6
0	563	8.357591688463	7
0	569	8.452541146813	7
0	577	8.509994387487	7
0	589	8.742629493656	6
0	595	8.862240273602	6
0	597	8.87269639618	7
0	599	8.878907925227	8
0	621	9.228929293672	5
0	629	9.338820540427	5
0	635	9.444703953576	5
0	643	9.555763698145	5
0	645	9.574506304747	6
0	651	9.598126975355	6
0	653	9.642467378217	7
0	655	9.65627024706	8
0	667	9.795174516039	7
0	669	9.833070712467	8
0	677	9.926676868444	8
0	679	9.971887074466	9
0	685	10.011198330196	9
0	693	10.095641109549	9
0	695	10.09955942519	10
0	697	10.157291856271	11
0	703	10.257878956788	11
0	731	10.703328641406	7
0	747	11.022623305611	5
0	749	11.033386816427	6
0	757	11.139169457762	6
0	759	11.16259960964	7
0	765	11.263401534182	7
0	773	11.280992888725	7
0	799	11.817002923749	3
0	807	11.922877195258	3
0	813	12.010068780621	3
0	815	12.039276833948	4
0	823	12.092783301656	4
0	825	12.155577459755	5
0	831	12.219955559915	5
0	833	12.247983260763	6
0	841	12.34566966817	6
0	843	12.362982413785	7
0	849	12.404232536777	7
0	851	12.415928077756	8
0	859	12.528244907909	8
0	865	12.635052127624	8
0	867	12.673207711961	9
0	875	12.688078938886	9
0	881	12.838742472213	9
0	883	12.860630531864	10
0	901	13.159349521049	8
0	907	13.205350916823	8
0	915	13.313977854911	8
0	927	13.486011020683	7
0	929	13.487377478526	8
0	931	13.497591966678	9
0	937	13.595102160094	9
0	945	13.777084052022	9
0	957	13.889065488597	8
0	959	13.899168966128	9
0	975	14.256527803362	7
0	997	14.63143094932	4
0	1009	14.841963079399	3
0	1017	14.905196739039	3
0	1019	14.976455098372	4
0	1041	15.352647826822	1
0	1043	15.358380519464	2
0	1049	15.451228369154	2
0	1057	15.511223057818	2
0	1063	15.645647585033	2
0	1065	15.647666597848	3
0	1067	15.651664227754	4
0	1075	15.709952066641	4
0	1077	15.743193090737	5
0	1099	16.132350103022	2
0	1101	16.145155779553	3
0	1107	16.189697725745	3
0	1109	16.224815334683	4
0	1117	16.290379963119	4
0	1119	16.303018826762	5
0	1125	16.419706179417	5
0	1127	16.457976274303	6
0	1139	16.670399994003	5
0	1147	16.723888431579	5
0	1159	16.974279609888	4
0	1165	16.980909350036	4
0	1167	17.005348894844	5
0	1175	17.123267847551	5
0	1181	17.206552199158	5
0	1189	17.290161952355	5
0	1201	17.490486004606	4
0	1203	17.521327488616	5
0	1209	17.592452282338	5
0	1211	17.666528177383	6
0	1229	17.915086413081	4
0	1231	17.924951443923	5
0	1243	18.178981894719	4
0	1249	18.264771458826	4
0	1251	18.27344850706	5
0	1269	18.538374099928	3
0	1271	18.570908141481	4
0	1277	18.609264162891	4
0	1279	18.610204237957	5
0	1287	18.720288828966	5
0	1299	18.905021594066	4
0	1301	18.919154665422	5
0	1307	19.02333273084	5
0	1315	19.149326111851	5
0	1327	19.333454359	4
0	1329	19.367619775703	5
0	1335	19.398371548079	5
0	1337	19.418606591936	6
0	1339	19.469326604262	7
0	1347	19.557639508458	7
0	1353	19.638119248438	7
0	1355	19.640150494318	8
0	1357	19.658175719516	9
0	1369	19.834749826757	8
0	1377	19.880922916361	8
0	1379	19.88139357041	9
0	1381	19.897227721033	10
0	1387	20.01049113523	10
0	1395	20.094799438445	10
0	1397	20.12627160453	11
0	1403	20.247922469874	11
0	1415	20.380798257249	10
0	1417	20.414832931073	11
0	1435	20.742347248844	9
0	1441	20.799137664192	9
0	1443	20.827739761443	10
0	1451	20.968842202372	10
0	1457	21.054681499155	10
0	1465	21.105115879814	10
0	1471	21.194774966893	10
0	1483	21.421148324479	9
0	1491	21.506070405635	9
0	1497	21.607936278637	9
0	1499	21.633178277926	10
0	1511	21.855328967773	9
0	1529	22.160557133461	7
0	1535	22.274517929814	7
0	1543	22.333780332559	7
0	1549	22.393418271992	7
0	1561	22.580764259978	6
0	1579	22.965064918302	4
0	1591	23.085288775027	3
0	1593	23.097641439763	4
0	1595	23.13294345309	5
0	1601	23.278625308946	5
0	1613	23.446717529401	4
0	1621	23.499789779063	4
0	1623	23.550291653838	5
0	1629	23.662819855522	5
0	1641	23.875769795129	4
0	1649	23.904510842736	4
0	1655	23.991564425369	4
0	1657	24.02913830961	5
0	1669	24.242621354608	4
0	1687	24.579058399913	2
0	1699	24.696996693277	1
0	1705	24.785782834321	1
0	1713	24.914973761201	1
0	1719	25.022757249615	1
0	1727	25.092337195705	1
0	1729	25.168523972835	2
0	1749	25.481070808601	1
0	1752	25.507276532769	1
0	1757	25.610556233834	1
0	1759	25.66078731366	2
0	1767	25.715926912673	2
0	1773	25.812372269222	2
0	1781	25.905612557263	2
0	1783	25.970023028095	3
0	1785	25.97196100623	4
0	1791	26.035473777793	4
0	1793	26.07136649938	5
0	1805	26.197270851106	4
0	1813	26.305202870972	4
0	1815	26.33916934423	5
0	1817	26.3734293067	6
0	1823	26.421792875359	6
0	1831	26.518030380936	6
0	1837	26.65632830159	6
0	1845	26.712324408597	6
0	1857	26.923069169092	5
0	1859	26.937626566937	6
0	1861	26.948481276786	7
0	1867	26.983903690011	7
0	1869	26.993595965469	8
0	1871	27.077984812728	9
0	1879	27.121687614105	9
0	1885	27.211060521936	9
0	1893	27.291315720512	9
0	1895	27.376723694076	10
0	1897	27.380144035912	11
0	1909	27.48604497445	10
0	1925	27.833298522378	8
0	1933	27.938883483244	8
0	1935	27.977596492459	9
0	1941	28.034057542571	9
0	1943	28.059065692069	10
0	1961	28.285929091338	8
0	1963	28.301158453863	9
0	1965	28.346975742259	10
0	1967	28.357207803744	11
0	1973	28.414453958887	11
0	1995	28.828234934938	8
0	2007	29.050726400661	7
0	2011	29.080882991983	8
0	2021	29.244972749776	7
0	2029	29.321980435731	7
0	2035	29.443682385265	7
0	2043	29.503089735097	7
0	2045	29.51365099946	8
0	2047	29.52413918302	9
0	2059	29.776067396028	8
0	2065	29.819501961622	8
0	2073	29.944762714113	8
0	2079	30.008108975885	8
0	2117	30.684648027879	2
0	2123	30.868621306387	2
0	2131	30.884808315058	2
0	2143	31.119826044033	1
0	2155	31.322416925743	1
0	2158	31.326245217031	1
0	2160	31.343977774546	2
0	2164	31.414969567268	3
0	2171	31.51056620966	3
0	2177	31.528820069848	3
0	2179	31.542038440809	4
0	2187	31.69302078637	4
0	2199	31.881413675029	3
0	2211	32.081612324582	2
0	2221	32.246284234715	1
0	2225	32.299284522529	2
0	2231	32.383472618702	2
0	2233	32.398551719721	3
0	2239	32.45083872273	3
0	2241	32.454217401285	4
0	2243	32.461384939716	5
0	2265	32.866369623596	2
0	2273	32.985913480224	2
0	2279	33.032640736865	2
0	2283	33.09307064405	3
0	2289	33.147556356864	3
0	2295	33.275589777245	3
0	2299	33.280781032463	4
0	2311	33.482058306084	3
0	2317	33.527549490563	3
0	2335	33.898545549753	1
0	2337	33.900222326352	2
0	2349	34.093880050101	1
0	2351	34.120112981018	2
0	2353	34.12129130421	3
0	2363	34.266070712409	2
0	2367	34.310695994461	3
0	2383	34.599157169671	1
0	2395	34.730087006073	1
0	2403	34.868716141275	1
0	2408	34.887545638797	1
0	2410	34.929006893063	2
0	2417	35.002620003062	2
0	2423	35.069866054745	2
0	2425	35.075453060034	3
0	2429	35.116850952301	4
0	2431	35.139164873111	5
0	2433	35.158947823857	6
0	2435	35.160817370899	7
0	2441	35.179569266019	7
0	2449	35.33741053823	7
0	2455	35.399670272628	7
0	2457	35.425020843142	8
0	2469	35.632623949186	7
0	2475	35.674989659322	7
0	2489	35.963444088163	6
0	2505	36.226665974418	4
0	2513	36.32037984619	4
0	2519	36.442259526524	4
0	2527	36.533055929256	4
0	2529	36.536291609721	5
0	2541	36.689374732348	4
0	2543	36.707370466503	5
0	2549	36.776690443457	5
0	2555	36.873838659266	5
0	2557	36.879006949846	6
0	2561	36.965099313514	7
0	2573	37.085196404168	6
0	2575	37.112363211202	7
0	2601	37.600276500001	3
0	2617	37.872411325592	1
0	2621	37.903508106089	2
0	2627	37.998691076843	2
0	2635	38.112350726369	2
0	2641	38.189058691826	2
0	2653	38.388775888575	1
0	2659	38.477913746266	1
0	2667	38.616881452644	1
0	2675	38.74785998978	1
0	2691	39.081653423165	1
0	2694	39.119042072755	1
0	2699	39.199840078095	1
0	2701	39.250626590364	2
0	2703	39.274501877649	3
0	2711	39.298054334991	3
0	2713	39.323214196302	4
0	2715	39.34381740115	5
0	2717	39.36850332803	6
0	2733	39.65741088722	4
0	2741	39.741708764761	4
0	2747	39.876243508084	4
0	2755	39.936411406736	4
0	2761	40.0038358637	4
0	2779	40.355283731754	2
0	2781	40.381085008148	3
0	2793	40.495198798434	2
0	2795	40.524549563626	3
0	2797	40.533464992626	4
0	2799	40.539443088918	5
0	2801	40.54525032513	6
0	2807	40.602240081661	6
0	2809	40.66915145403	7
0	2817	40.706518433469	7
0	2829	40.919385442922	6
0	2835	41.038571253287	6
0	2857	41.41324071467	3
0	2859	41.460682343703	4
0	2867	41.55682630086	4
0	2869	41.576623074393	5
0	2875	41.654820646481	5
0	2877	41.657319481812	6
0	2889	41.8501554955	5
0	2891	41.857117262607	6
0	2903	41.993310435038	5
0	2911	42.107064285592	5
0	2913	42.172187358784	6
0	2919	42.232645480618	6
0	2927	42.345681035209	6
0	2933	42.422593015319	6
0	2941	42.51599904858	6
0	2953	42.742983050158	5
0	2959	42.868403377167	5
0	2987	43.332368629804	1
0	2993	43.395761631743	1
0	2995	43.420210733947	2
0	2999	43.481094025321	3
0	3009	43.589884468682	2
0	3021	43.826776285766	1
0	3023	43.857336775947	2
0	3025	43.872096379236	3
0	3027	43.874183101097	4
0	3035	43.900218242252	4
0	3041	44.042256587811	4
0	3053	44.255612916558	3
0	3061	44.294181685963	3
0	3073	44.528966062106	2
0	3075	44.577329900855	3
0	3083	44.681114908404	3
0	3089	44.769865101252	3
0	3095	44.809122404071	3
0	3107	44.986936737754	2
0	3109	45.060273505071	3
0	3117	45.159423934361	3
0	3119	45.159429469551	4
0	3131	45.365511593639	3
0	3137	45.402887923021	3
0	3139	45.434845388508	4
0	3147	45.490262471413	4
0	3153	45.650234415597	4
0	3165	45.866810783684	3
0	3173	45.887345560558	3
0	3179	46.001251325625	3
0	3197	46.306569792584	1
0	3199	46.367474253855	2
0	3211	46.483785582198	1
0	3213	46.549835890173	2
0	3215	46.57410773954	3
0	3227	46.729574033321	2
0	3243	47.024022061063	1
0	3246	47.050086074001	1
0	3255	47.181336873298	1
0	3267	47.393611538692	1
0	3270	47.422906684541	1
0	3274	47.460549619693	2
0	3278	47.484541971637	3
0	3297	47.800251525779	1
0	3300	47.873274292303	1
0	3309	47.937093152862	1
0	3311	47.939692927381	2
0	3317	48.064028005176	2
0	3321	48.087280507014	3
0	3327	48.103967971137	3
0	3329	48.159251808202	4
0	3337	48.290349045018	4
0	3343	48.337216692616	4
0	3349	48.441137256274	4
0	3357	48.50342018725	4
0	3359	48.527612151727	5
0	3361	48.560133753525	6
0	3363	48.580769552885	7
0	3369	48.669148118488	7
0	3381	48.833955735804	6
0	3393	49.033359655932	5
0	3401	49.170827651312	5
0	3403	49.183330910304	6
0	3411	49.295676960259	6
0	3417	49.368529344532	6
0	3423	49.400949255881	6
0	3425	49.415113459361	7
0	3427	49.434339603445	8
0	3435	49.560520870794	8
0	3443	49.682420805312	8
0	3449	49.732848798637	8
0	3451	49.795052490545	9
0	3457	49.87839031461	9
0	3469	50.061916654904	8
0	3473	50.082162531274	9
0	3479	50.105086963795	9
0	3481	50.120734540833	10
0	3483	50.138761970791	11
0	3489	50.205716029877	11
0	3491	50.219050092204	12
0	3493	50.262995631253	13
0	3501	50.391038066651	13
0	3517	50.673101661493	11
0	3519	50.676194290649	12
0	3531	50.821149768292	11
0	3539	50.958584069734	11
0	3547	51.096680379301	11
0	3553	51.106397147138	11
0	3565	51.340446343204	10
0	3567	51.364966152468	11
0	3569	51.373677010794	12
0	3581	51.512008657409	11
0	3583	51.592347833676	12
0	3595	51.723910459506	11
0	3601	51.811731967378	11
0	3603	51.816400741742	12
0	3621	52.143250381824	10
0	3623	52.16671596675	11
0	3629	52.201267925121	11
0	3631	52.235083396605	12
0	3633	52.262636190309	13
0	3641	52.375728038228	13
0	3643	52.386296755638	14
0	3645	52.392808042117	15
0	3647	52.394464651559	16
0	3653	52.475578753782	16
0	3671	52.740834605334	14
0	3673	52.741762907772	15
0	3679	52.852603883193	15
0	3691	53.031602843641	14
0	3699	53.185385715089	14
0	3725	53.600982824645	10
0	3727	53.634073812763	11
0	3735	53.755642860099	11
0	3741	53.843930914595	11
0	3743	53.863975134104	12
0	3745	53.870584335173	13
0	3753	53.942408983184	13
0	3759	54.008889758139	13
0	3763	54.095746331286	14
0	3783	54.475148709595	11
0	3795	54.630049877511	10
0	3807	54.839205534773	9
0	3815	54.9324667203	9
0	3817	54.973739706973	10
0	3819	54.998381289194	11
0	3841	55.324273386912	8
0	3843	55.385001315774	9
0	3849	55.411359027058	9
0	3861	55.622447904496	8
0	3879	55.920667972043	6
0	3881	55.988448172249	7
0	3897	56.272112191587	5
0	3905	56.397835891144	5
0	3917	56.558381767451	4
0	3923	56.624966016115	4
0	3931	56.724512380452	4
0	3937	56.847800426755	4
0	3949	57.055176573065	3
0	3957	57.12412002685	3
0	3959	57.158795357229	4
0	3971	57.344938521527	3
0	3983	57.533948691337	2
0	3985	57.555558312996	3
0	3991	57.651759505655	3
0	3999	57.80018375392	3
0	4005	57.801516278403	3
0	4023	58.167482011479	1
0	4029	58.210135592683	1
0	4041	58.408410483143	1
0	4044	58.424443892592	1
0	4053	58.576050785575	1
0	4069	58.976845751062	1
0	4081	59.397031693687	1
0	4084	59.462111427923	1
0	4095	59.602178997619	1
0	4098	59.670973345465	1
0	4100	59.671378977597	2
0	4109	59.773397686392	2
0	4115	59.804797476198	2
0	4117	59.850776607976	3
0	4125	59.903623330806	3
0	4127	59.918345834537	4
0	4129	59.974246601536	5
0	4141	60.14690993951	4
0	4143	60.182269597036	5
0	4149	60.203322925856	5
0	4151	60.254594390119	6
0	4159	60.326198921918	6
0	4161	60.339056945646	7
0	4163	60.364458083481	8
0	4185	60.759221410237	5
0	4187	60.769518246609	6
0	4193	60.821626128717	6
0	4205	61.019815162828	5
0	4213	61.104028793112	5
0	4229	61.46492289361	3
0	4237	61.507022223415	3
0	4253	61.831018520105	1
0	4261	61.98654795614	1
0	4275	62.223586714201	1
0	4278	62.276582872128	1
0	4289	62.425325847562	1
0	4292	62.469840781503	1
0	4296	62.510359069737	2
0	4303	62.561358153122	2
0	4305	62.569816102298	3
0	4307	62.605745492811	4
0	4313	62.658042258177	4
0	4321	62.807305474596	4
0	4327	62.83373252101	4
0	4341	63.094389701242	3
0	4343	63.108602252381	4
0	4349	63.147952493493	4
0	4351	63.153443230748	5
0	4367	63.458929208649	3
0	4375	63.588243994529	3
0	4377	63.589648653653	4
0	4379	63.590797978674	5
0	4385	63.667040347095	5
0	4393	63.814260762894	5
0	4399	63.850584984784	5
0	4401	63.86647830275	6
0	4415	64.080916849201	5
0	4417	64.089203076493	6
0	4419	64.118054347528	7
0	4425	64.127441802256	7
0	4431	64.240579679016	7
0	4439	64.352068421207	7
0	4447	64.518364999274	7
0	4453	64.546517401521	7
0	4455	64.603106855684	8
0	4461	64.657672627161	8
0	4469	64.797159536287	8
0	4475	64.878661369377	8
0	4487	65.055623351698	7
0	4499	65.252629108257	6
0	4503	65.300276966517	7
0	4513	65.430121530077	6
0	4515	65.440274938471	7
0	4517	65.471790941343	8
0	4521	65.501381128668	9
0	4523	65.51547791711	10
0	4529	65.605110837612	10
0	4531	65.610807490859	11
0	4537	65.675524961263	11
0	4541	65.711421093101	12
0	4547	65.7783513803	12
0	4549	65.808748536223	13
0	4555	65.870092445182	13
0	4563	65.930998890714	13
0	4565	66.005357209892	14
0	4573	66.120331348667	14
0	4579	66.178673725771	14
0	4587	66.297623350904	14
0	4599	66.489107576668	13
0	4601	66.522447910506	14
0	4607	66.57926495888	14
0	4613	66.627056757631	14
0	4621	66.802428222133	14
0	4623	66.822413775925	15
0	4631	66.893614582487	15
0	4641	67.04898913269	14
0	4643	67.058022857098	15
0	4645	67.063875646993	16
0	4653	67.171768337843	16
0	4661	67.291169674903	16
0	4663	67.314311772099	17
0	4673	67.465133295262	16
0	4685	67.653045138683	15
0	4693	67.803286418054	15
0	4701	67.917655480113	15
0	4707	67.947687988142	15
0	4709	67.967334176732	16
0	4711	68.014144822055	17
0	4713	68.021386733066	18
0	4721	68.109962797669	18
0	4723	68.110936338603	19
0	4729	68.142794723391	19
0	4741	68.365403122335	18
0	4743	68.411742125089	19
0	4749	68.426067427227	19
0	4751	68.448014243316	20
0	4759	68.599060403438	20
0	4765	68.660652331816	20
0	4779	68.919897192694	19
0	4781	68.924460997644	20
0	4791	69.050050346078	19
0	4799	69.210892130987	19
0	4805	69.278387228352	19
0	4809	69.286395113946	20
0	4815	69.349788326595	20
0	4817	69.422942860508	21
0	4833	69.637252830551	19
0	4835	69.673897959734	20
0	4843	69.740921147392	20
0	4849	69.827087896572	20
0	4853	69.880628331681	21
0	4869	70.201109214642	19
0	4871	70.220238819232	20
0	4879	70.323963328642	20
0	4885	70.388454177759	20
0	4887	70.392054460734	21
0	4899	70.545139302628	20
0	4901	70.60142182281	21
0	4909	70.682711658929	21
0	4915	70.754050087209	21
0	4917	70.771469603246	22
0	4923	70.848294937433	22
0	4925	70.863823495983	23
0	4933	70.978203033895	23
0	4941	71.083031944391	23
0	4943	71.11554903144	24
0	4949	71.19303326939	24
0	4951	71.206828592583	25
0	4957	71.246234349778	25
0	4961	71.296103583065	26
0	4963	71.312004784745	27
0	4979	71.6252877337	25
0	4985	71.642707605358	25
0	4987	71.663426123583	26
0	4989	71.677284805725	27
0	5003	71.911608798734	26
0	5009	71.998102609677	26
0	5015	72.076586311636	26
0	5019	72.086266058867	27
0	5025	72.147314343367	27
0	5037	72.388715986418	26
0	5049	72.60245815546	25
0	5051	72.611119854905	26
0	5057	72.672480275879	26
0	5069	72.833613475791	25
0	5077	72.962409673299	25
0	5089	73.172073300651	24
0	5091	73.222993549338	25
0	5097	73.232805501601	25
0	5109	73.467192465681	24
0	5113	73.522758356997	25
0	5123	73.639884726492	24
0	5127	73.703982081018	25
0	5133	73.824253459401	25
0	5141	73.911050457603	25
0	5147	73.950758552605	25
0	5153	74.076722669667	25
0	5161	74.218101002621	25
0	5163	74.220845212664	26
0	5171	74.321922128974	26
0	5181	74.453374338782	25
0	5185	74.480820690982	26
0	5195	74.62647671214	25
0	5197	74.643976216962	26
0	5199	74.644957660602	27
0	5207	74.804113272881	27
0	5213	74.840971566842	27
0	5231	75.160797064519	25
0	5233	75.18730637466	26
0	5239	75.248580919146	26
0	5243	75.318583482758	27
0	5249	75.407983623026	27
0	5267	75.715291145305	25
0	5279	75.91028883649	24
0	5285	75.991890692886	24
0	5291	76.052996449015	24
0	5293	76.063251638315	25
0	5311	76.366645895555	23
0	5317	76.463846984661	23
0	5325	76.549590494922	23
0	5337	76.748384440406	22
0	5345	76.920291371585	22
0	5351	76.937445234322	22
0	5363	77.176963213261	21
0	5389	77.665313112296	17
0	5401	77.834336607772	16
0	5403	77.843219846037	17
0	5405	77.860585502358	18
0	5407	77.870507655006	19
0	5415	77.969635605582	19
0	5421	78.07004072297	19
0	5425	78.120862668375	20
0	5441	78.419040634108	18
0	5446	78.425517203387	18
0	5461	78.701577648955	17
0	5467	78.756748010214	17
0	5469	78.816056169947	18
0	5475	78.845989008189	18
0	5483	78.976072750935	18
0	5495	79.165145666378	17
0	5503	79.300717517763	17
0	5505	79.304104703287	18
0	5511	79.340775218666	18
0	5527	79.660151405934	16
0	5529	79.672908763314	17
0	5533	79.716816461873	18
0	5539	79.775493342541	18
0	5541	79.819608823614	19
0	5547	79.869329752248	19
0	5549	79.870976080646	20
0	5557	79.946872558071	20
0	5559	79.967357784786	21
0	5571	80.154021831804	20
0	5573	80.205314530987	21
0	5581	80.282160788726	21
0	5597	80.547079614949	19
0	5603	80.661107502641	19
0	5605	80.671600777374	20
0	5613	80.76555097596	20
0	5629	81.056142936326	18
0	5631	81.06651001999	19
0	5643	81.270139438717	18
0	5647	81.27979356662	19
0	5653	81.340336944784	19
0	5655	81.346096236466	20
0	5657	81.385652796506	21
0	5659	81.394703543521	22
0	5661	81.421197037285	23
0	5667	81.448269476359	23
0	5675	81.543581730186	23
0	5687	81.726535945772	22
0	5689	81.729899337864	23
0	5691	81.803791339858	24
0	5693	81.805364252235	25
0	5699	81.877328742004	25
0	5707	81.933329579337	25
0	5713	82.03826379593	25
0	5715	82.045313990766	26
0	5719	82.123969899955	27
0	5725	82.152997241467	27
0	5727	82.156297639973	28
0	5729	82.181292721638	29
0	5735	82.268078908627	29
0	5739	82.2972735158	30
0	5749	82.444715738278	29
0	5751	82.458763309974	30
0	5755	82.505960118751	31
0	5757	82.507171043257	32
0	5763	82.574706630274	32
0	5765	82.586978131006	33
0	5787	82.986734478678	30
0	5795	83.083093748307	30
0	5797	83.111151340925	31
0	5817	83.477107552771	28
0	5821	83.523999685498	29
0	5847	83.988027685093	25
0	5849	83.992701175267	26
0	5855	84.045304254843	26
0	5859	84.082420426923	27
0	5861	84.100208102709	28
0	5871	84.278301570198	27
0	5879	84.380123328079	27
0	5891	84.544641670786	26
0	5893	84.612036015208	27
0	5901	84.714207849949	27
0	5927	85.168990235135	23
0	5929	85.214893027884	24
0	5931	85.221646443572	25
0	5937	85.259152637884	25
0	5945	85.412046524955	25
0	5957	85.573912631597	24
0	5959	85.607936353558	25
0	5961	85.615241519273	26
0	5967	85.642872038566	26
0	5975	85.757938297859	26
0	5981	85.866558628975	26
0	5985	85.914479898423	27
0	5991	85.942724569619	27
0	5997	86.043217900525	27
0	6005	86.152837156626	27
0	6017	86.414401249868	26
0	6025	86.487239007171	26
0	6035	86.679612864238	25
0	6043	86.734793076402	25
0	6045	86.803644465206	26
0	6053	86.884542434719	26
0	6059	86.940375113645	26
0	6061	86.974209725515	27
0	6073	87.147121689283	26
0	6079	87.269734910506	26
0	6087	87.403762506704	26
0	6093	87.457352386238	26
0	6097	87.516618128032	27
0	6103	87.561332118292	27
0	6121	87.908396626346	25
0	6133	88.084805365565	24
0	6139	88.129929245414	24
0	6151	88.388911859964	23
0	6157	88.439584181354	23
0	6159	88.44429410846	24
0	6167	88.578496082578	24
0	6169	88.604974309912	25
0	6175	88.664591499052	25
0	6179	88.70744225947	26
0	6195	88.984356707754	24
0	6207	89.15307853663	23
0	6209	89.182815889421	24
0	6231	89.606117469054	21
0	6237	89.654205291484	21
0	6255	90.001490862074	19
0	6263	90.120939856425	19
0	6279	90.356273333232	17
0	6291	90.583644049901	16
0	6293	90.618820788444	17
0	6299	90.631724638762	17
0	6323	91.114696663559	14
0	6329	91.142343935213	14
0	6331	91.171034844751	15
0	6333	91.196946070339	16
0	6335	91.208140524453	17
0	6341	91.275378814657	17
0	6359	91.576875641876	15
0	6371	91.798997060196	14
0	6377	91.825578715098	14
0	6379	91.869912154698	15
0	6387	91.986955727699	15
0	6393	92.035607641675	15
0	6395	92.041620478588	16
0	6409	92.290183587023	15
0	6415	92.421379895131	15
0	6421	92.433463034757	15
0	6433	92.646933274211	14
0	6441	92.746663166628	14
0	6443	92.778468621147	15
0	6445	92.792718915712	16
0	6451	92.840370497809	16
0	6455	92.887250066973	17
0	6461	92.934137882536	17
0	6463	92.973354011498	18
0	6471	93.111499919483	18
0	6480	93.225479460149	17
0	6483	93.252635039317	18
0	6491	93.411370762286	18
0	6497	93.430227234711	18
0	6501	93.500331785644	19
0	6507	93.559986777332	19
0	6509	93.595118905486	20
0	6515	93.631426789504	20
0	6527	93.848549377639	19
0	6539	94.031302004421	18
0	6541	94.074668489958	19
0	6545	94.101815486601	20
0	6555	94.23590565906	19
0	6559	94.305699413943	20
0	6565	94.386748728661	20
0	6581	94.672491263443	18
0	6585	94.694995512829	19
0	6591	94.795507077686	19
0	6597	94.875029297817	19
0	6609	95.076987748139	18
0	6617	95.150310282007	18
0	6633	95.432001455003	16
0	6635	95.47489263858	17
0	6643	95.613828489275	17
0	6645	95.616321298848	18
0	6657	95.736577033319	17
0	6659	95.752691291202	18
0	6677	96.096785695961	16
0	6679	96.110925007234	17
0	6709	96.629437949537	12
0	6717	96.75250983464	12
0	6719	96.812625299278	13
0	6731	96.936093286883	12
0	6733	96.943443924625	13
0	6739	97.03805409875	13
0	6741	97.072697431499	14
0	6749	97.184143254671	14
0	6751	97.200672555903	15
0	6757	97.260005612729	15
0	6761	97.314045882489	16
0	6771	97.433144027829	15
0	6773	97.447218543372	16
0	6777	97.494752510336	17
0	6783	97.587416370366	17
0	6785	97.597955983357	18
0	6791	97.646213504873	18
0	6809	97.968745113245	16
0	6821	98.194492792321	15
0	6823	98.202011973237	16
0	6845	98.545574312485	13
0	6847	98.54752324178	14
0	6853	98.62668415124	14
0	6871	99.015775160281	12
0	6877	99.047909190568	12
0	6879	99.063982194625	13
0	6887	99.153687496036	13
0	6889	99.18362279633	14
0	6901	99.41069380707	13
0	6907	99.434968350806	13
0	6911	99.487179481247	14
0	6917	99.57390868313	14
0	6923	99.654222360322	14
0	6945	100.026163191412	11
0	6947	100.057860929401	12
0	6951	100.089745034242	13
0	6957	100.150523510654	13
0	6975	100.501429865754	11
0	6981	100.55279842708	11
0	6983	100.555381231523	12
0	6985	100.583938123573	13
0	6997	100.802902795029	12
0	7003	100.873397727167	12
0	7011	100.996706599889	12
0	7017	101.033868175372	12
0	7019	101.066409847088	13
0	7023	101.113096281444	14
0	7039	101.338345568451	12
0	7041	101.412783394591	13
0	7043	101.415471456542	14
0	7055	101.554339183929	13
0	7061	101.652592018201	13
0	7065	101.693164652588	14
0	7071	101.733144179836	14
0	7083	101.991055492915	13
0	7105	102.332547983158	10
0	7117	102.530829241185	9
0	7119	102.549290828476	10
0	7121	102.554282388719	11
0	7133	102.786034994976	10
0	7135	102.815290055095	11
0	7141	102.855328208241	11
0	7145	102.914411730281	12
0	7161	103.134444662325	10
0	7163	103.145496249985	11
0	7165	103.217332833506	12
0	7171	103.260176936385	12
0	7179	103.331640355123	12
0	7185	103.466385237492	12
0	7189	103.515296078554	13
0	7199	103.629400411979	12
0	7203	103.704921593755	13
0	7209	103.802309452903	13
0	7227	104.091821214605	11
0	7233	104.215791022667	11
0	7249	104.439155007777	9
0	7251	104.462086724941	10
0	7259	104.575132444772	10
0	7261	104.616941610666	11
0	7269	104.718836928774	11
0	7279	104.831612972131	10
0	7283	104.911100255738	11
0	7295	105.122490937203	10
0	7301	105.154330238809	10
0	7307	105.232785908501	10
0	7309	105.248834319237	11
0	7313	105.282060381595	12
0	7323	105.476065202583	11
0	7325	105.479135379884	12
0	7333	105.579936733932	12
0	7341	105.70384038467	12
0	7347	105.739456962826	12
0	7349	105.740248497477	13
0	7351	105.801907806329	14
0	7357	105.848537508973	14
0	7359	105.851020829748	15
0	7367	105.926637454527	15
0	7369	106.008296723412	16
0	7385	106.263544372767	14
0	7389	106.308353169605	15
0	7391	106.317728708366	16
0	7397	106.387586808974	16
0	7403	106.439664695461	16
0	7405	106.456344271273	17
0	7407	106.45880563568	18
0	7411	106.514232483021	19
0	7417	106.556180415368	19
0	7429	106.792809441753	18
0	7437	106.890156696118	18
0	7439	106.891011497983	19
0	7441	106.923732536116	20
0	7461	107.270671919994	17
0	7465	107.294212506644	18
0	7471	107.411619520323	18
0	7473	107.423915777012	19
0	7479	107.434387004355	19
0	7483	107.520458475106	20
0	7489	107.554675944268	20
0	7495	107.673508860297	20
0	7503	107.75096053909	20
0	7509	107.86242163939	20
0	7517	107.991210663301	20
0	7535	108.288531497249	18
0	7541	108.337775634887	18
0	7543	108.338046322345	19
0	7545	108.363804808979	20
0	7551	108.467989255461	20
0	7559	108.528660496385	20
0	7561	108.620387676076	21
0	7583	108.97823784866	18
0	7589	109.067090719893	18
0	7601	109.246558031293	17
0	7619	109.575622914319	15
0	7631	109.82188734126	14
0	7633	109.823588903633	15
0	7645	109.933635756681	14
0	7651	110.052867334103	14
0	7655	110.110968199649	15
0	7665	110.278996439657	14
0	7673	110.394543912532	14
0	7679	110.465839560445	14
0	7687	110.570422089724	14
0	7689	110.611063376399	15
0	7691	110.614016557515	16
0	7703	110.770482212585	15
0	7715	111.02247108197	14
0	7721	111.032701260071	14
0	7725	111.110889702381	15
0	7731	111.169235719612	15
0	7757	111.641875239298	11
0	7761	111.715262236	12
0	7767	111.763567538426	12
0	7775	111.881970312061	12
0	7785	112.046305635582	11
0	7787	112.055834083869	12
0	7791	112.117639321583	13
0	7797	112.143485246455	13
0	7805	112.318830058283	13
0	7811	112.371644457355	13
0	7817	112.449105830991	13
0	7825	112.546735033288	13
0	7837	112.765006422217	12
0	7849	112.983008466933	11
0	7861	113.195123912618	10
0	7869	113.291573888794	10
0	7875	113.331368728259	10
0	7877	113.345693598638	11
0	7879	113.397516383448	12
0	7901	113.791662251911	9
0	7907	113.870330563457	9
0	7919	114.075735811843	8
0	7927	114.172940708691	8
0	7933	114.242801065386	8
0	7937	114.29050084048	9
0	7953	114.546052612146	7
0	7955	114.624169491145	8
0	7963	114.702122994028	8
0	7965	114.715010858632	9
0	7981	114.971804121502	7
0	7989	115.085965673854	7
0	7999	115.263101005786	6
0	8003	115.296945119068	7
0	8023	115.642046132004	4
0	8025	115.646438855417	5
0	8039	115.898740601552	4
0	8041	115.911081548703	5
0	8043	115.914751455731	6
0	8049	115.926004450369	6
0	8051	115.945214007984	7
0	8053	115.98326510284	8
0	8059	116.032552979677	8
0	8061	116.060860223262	9
0	8079	116.364813382275	7
0	8085	116.447545974635	7
0	8089	116.483217599902	8
0	8101	116.720041205202	7
0	8107	116.737532231212	7
0	8109	116.824307745506	8
0	8125	117.041731036219	6
0	8133	117.132845617026	6
0	8135	117.191975895583	7
0	8137	117.21916247944	8
0	8153	117.457624013763	6
0	8161	117.544585549847	6
0	8163	117.562048329495	7
0	8165	117.577815534778	8
0	8173	117.686025723226	8
0	8179	117.726917476151	8
0	8181	117.784946434949	9
0	8189	117.88317025339	9
0	8191	117.891127268899	10
0	8197	117.93596019956	10
0	8203	118.055185423768	10
0	8217	118.297090563184	9
0	8222	118.325512537537	9
0	8235	118.536290573377	8
0	8237	118.540332731142	9
0	8239	118.597276342529	10
0	8241	118.603457957394	11
0	8247	118.676358629532	11
0	8251	118.682660973958	12
0	8257	118.747033454543	12
0	8269	118.985340281862	11
0	8271	119.005718820083	12
0	8283	119.140381548937	11
0	8285	119.197432147745	12
0	8301	119.425771551187	10
0	8303	119.446541879808	11
0	8311	119.558193737164	11
0	8319	119.683793297041	11
0	8325	119.759070262245	11
0	8331	119.833095481386	11
0	8333	119.869400196825	12
0	8337	119.908049615029	13
0	8373	120.527640626901	7
0	8375	120.527951062582	8
0	8377	120.572922399377	9
0	8383	120.663879469864	9
0	8391	120.727489815301	9
0	8397	120.83220904085	9
0	8399	120.879729984729	10
0	8403	120.88025029801	11
0	8423	121.269114770287	8
0	8441	121.620512652582	6
0	8447	121.639708442777	6
0	8455	121.748733001423	6
0	8457	121.788480909415	7
0	8459	121.82317379773	8
0	8471	121.937226245226	7
0	8473	121.959586151059	8
0	8475	121.966115510624	9
0	8491	122.226082835159	7
0	8495	122.319540876794	8
0	8501	122.356538794769	8
0	8503	122.421479867448	9
0	8509	122.473100212942	9
0	8513	122.506507721248	10
0	8519	122.606763962081	10
0	8525	122.633999084716	10
0	8537	122.855321807869	9
0	8545	122.927582031623	9
0	8547	122.984252227608	10
0	8553	123.030127357873	10
0	8567	123.293540497467	9
0	8573	123.354516714753	9
0	8579	123.444185298412	9
0	8583	123.485355356199	10
0	8589	123.54188088433	10
0	8607	123.894196018453	8
0	8613	123.984036255097	8
0	8615	123.998358582245	9
0	8621	124.042132527856	9
0	8623	124.052314092054	10
0	8631	124.159322341017	10
0	8633	124.201389108257	11
0	8641	124.307033207675	11
0	8647	124.396443796488	11
0	8659	124.568882985035	10
0	8665	124.676522030977	10
0	8673	124.728066785978	10
0	8675	124.778693182686	11
0	8677	124.782522062463	12
0	8715	125.505868907743	6
0	8737	125.923413268166	3
0	8743	125.966783215206	3
0	8749	126.026229816876	3
0	8757	126.154030029793	3
0	8773	126.431505491951	1
0	8781	126.533001387788	1
0	8787	126.644488073195	1
0	8795	126.812181546494	1
0	8801	126.84320115882	1
0	8817	127.217116006624	1
0	8822	127.300142071301	1
0	8835	127.520682151681	1
0	8845	127.835181906951	1
0	8853	127.979812664167	1
0	8856	127.991858490944	1
0	8865	128.111673629728	1
0	8867	128.143450563866	2
0	8873	128.184322329289	2
0	8875	128.1928844087	3
0	8877	128.208864386743	4
0	8885	128.353796573691	4
0	8887	128.360264934206	5
0	8889	128.362457672275	6
0	8895	128.390151894808	6
0	8897	128.404915083131	7
0	8899	128.461528038301	8
0	8907	128.49172353865	8
0	8909	128.565537212905	9
0	8921	128.770395528565	8
0	8933	128.918712869369	7
0	8935	128.938486046163	8
0	8951	129.25727446339	6
0	8959	129.314063232702	6
0	8961	129.326542541928	7
0	8963	129.365864270627	8
0	8965	129.377181603866	9
0	8971	129.464745483675	9
0	8979	129.553830863864	9
0	8995	129.829452171612	7
0	9003	129.96625757375	7
0	9019	130.248909970806	5
0	9031	130.437396432226	4
0	9033	130.442790127868	5
0	9051	130.71741531489	3
0	9057	130.808101625621	3
0	9079	131.218095054888	1
0	9091	131.440473336463	1
0	9096	131.491522852733	1
0	9105	131.643359767573	1
0	9110	131.69121742468	1
0	9112	131.714984011791	2
0	9114	131.730978433126	3
0	9125	131.875793045521	2
0	9133	131.991290498878	2
0	9135	132.012246947451	3
0	9143	132.119180053288	3
0	9159	132.348205775278	1
0	9171	132.54630130489	1
0	9174	132.547198443623	1
0	9176	132.55743029158	2
0	9178	132.56688696523	3
0	9180	132.635758049626	4
0	9189	132.732301629596	4
0	9195	132.819309620633	4
0	9201	132.867507541589	4
0	9205	132.895156309999	5
0	9207	132.905311187057	6
0	9209	132.923826792406	7
0	9231	133.343353654418	4
0	9243	133.539665983374	3
0	9259	133.766562892036	1
0	9261	133.772594694414	2
0	9263	133.804218404998	3
0	9269	133.86782345211	3
0	9273	133.93191499443	4
0	9275	133.944226039922	5
0	9281	134.009571365895	5
0	9287	134.070646783382	5
0	9291	134.141653817948	6
0	9313	134.532667894913	3
0	9333	134.874581545182	1
0	9338	134.929695340013	1
0	9340	134.940226781933	2
0	9353	135.134805240325	1
0	9355	135.138851035891	2
0	9357	135.151329788127	3
0	9363	135.21743776821	3
0	9365	135.249080507329	4
0	9373	135.310377234197	4
0	9375	135.362093926904	5
0	9381	135.388916236231	5
0	9383	135.439967493825	6
0	9385	135.446034923842	7
0	9393	135.557321305003	7
0	9395	135.570542464986	8
0	9401	135.612811443793	8
0	9413	135.807131499426	7
0	9421	135.932226365492	7
0	9427	135.983253505268	7
0	9435	136.085193024075	7
0	9437	136.133222205456	8
0	9443	136.184165056478	8
0	9445	136.18638692168	9
0	9447	136.242908085165	10
0	9455	136.289868888378	10
0	9461	136.3851974815	10
0	9469	136.493552300329	10
0	9471	136.50081390614	11
0	9477	136.5989923967	11
0	9485	136.771818333997	11
0	9501	137.017148918147	9
0	9509	137.123113412468	9
0	9515	137.234524886115	9
0	9523	137.364112667765	9
0	9529	137.403281121753	9
0	9537	137.480267315334	9
0	9539	137.518279218468	10
0	9541	137.529986222401	11
0	9553	137.70915165599	10
0	9555	137.761077028478	11
0	9567	137.910600140291	10
0	9569	137.962582334779	11
0	9575	137.995593004184	11
0	9577	138.034312750908	12
0	9585	138.159463646603	12
0	9587	138.162504445979	13
0	9593	138.244961618297	13
0	9605	138.378618460029	12
0	9607	138.429644375065	13
0	9609	138.441273541742	14
0	9617	138.516958973465	14
0	9623	138.610177647522	14
0	9625	138.619086243271	15
0	9633	138.740561814128	15
0	9639	138.850126801153	15
0	9647	138.950854069992	15
0	9649	138.953862349546	16
0	9665	139.273628225287	14
0	9683	139.493709912724	12
0	9685	139.504613099086	13
0	9691	139.619220902592	13
0	9703	139.821087278585	12
0	9715	140.043016830762	11
0	9717	140.045979305992	12
0	9719	140.04610013618	13
0	9727	140.122654044407	13
0	9743	140.399464050176	11
0	9745	140.451256394683	12
0	9763	140.76899945683	10
0	9769	140.8432718318	10
0	9781	141.002392058134	9
0	9783	141.04782081584	10
0	9811	141.531579560746	6
0	9813	141.552721678244	7
0	9819	141.596607095948	7
0	9821	141.598537906467	8
0	9833	141.787149417151	7
0	9835	141.860161619177	8
0	9847	142.007422905431	7
0	9859	142.192431827418	6
0	9867	142.319916972673	6
0	9869	142.366632295319	7
0	9875	142.466984734109	7
0	9883	142.492198701752	7
0	9885	142.528925518502	8
0	9887	142.537321522505	9
0	9893	142.614384628585	9
0	9895	142.623301736812	10
0	9897	142.655401502601	11
0	9905	142.680426830641	11
0	9907	142.681299620272	12
0	9909	142.691837234335	13
0	9911	142.694363346515	14
0	9913	142.725157226073	15
0	9915	142.740739144684	16
0	9917	142.747583032222	17
0	9923	142.819688272664	17
0	9925	142.826473860469	18
0	9927	142.851661338938	19
0	9939	143.045647514897	18
0	9947	143.091770092658	18
0	9949	143.10945816327	19
0	9951	143.115126551386	20
0	9957	143.197152450647	20
0	9969	143.439286115291	19
0	9981	143.587767522696	18
0	9993	143.804008016969	17
0	9995	143.864963935053	18
0	10013	144.09253593336	16
0	10015	144.109184952752	17
0	10017	144.149560243463	18
0	10019	144.171824128667	19
0	10031	144.296625951795	18
0	10033	144.353362763762	19
0	10039	144.409039844906	19
0	10047	144.484167082273	19
0	10049	144.520076650555	20
0	10051	144.563068870829	21
0	10053	144.570370125213	22
0	10065	144.722457715976	21
0	10071	144.777248959746	21
0	10079	144.916287892469	21
0	10081	144.965442428344	22
0	10097	145.227462586032	20
0	10099	145.244944786035	21
0	10101	145.247882780763	22
0	10109	145.290992963485	22
0	10121	145.517033008223	21
0	10123	145.527083560596	22
0	10129	145.576935193787	22
0	10141	145.781808993144	21
0	10153	145.992488205732	20
0	10161	146.102627813563	20
0	10167	146.21999958635	20
0	10169	146.241407805816	21
0	10195	146.678407780959	17
0	10209	146.928623579213	16
0	10215	147.071036680777	16
0	10223	147.157710787844	16
0	10229	147.203052129677	16
0	10231	147.263914065082	17
0	10239	147.333441643181	17
0	10245	147.43626217501	17
0	10253	147.483485049874	17
0	10255	147.512791399653	18
0	10257	147.558190544328	19
0	10263	147.638281412614	19
0	10265	147.668514226419	20
0	10273	147.682659436918	20
0	10275	147.751171444712	21
0	10277	147.773550321926	22
0	10289	147.888038966873	21
0	10291	147.960204841642	22
0	10297	147.992686522107	22
0	10299	148.002944448097	23
0	10305	148.077258013528	23
0	10313	148.268213515378	23
0	10321	148.280699601162	23
0	10323	148.331042212707	24
0	10325	148.348459134818	25
0	10331	148.374996130595	25
0	10333	148.379789850553	26
0	10335	148.467841694384	27
0	10357	148.820965834433	24
0	10365	148.958337760902	24
0	10367	148.958724543221	25
0	10373	149.052626403573	25
0	10375	149.072298472436	26
0	10383	149.158813378328	26
0	10389	149.253712013006	26
0	10391	149.272356976425	27
0	10399	149.280844117529	27
0	10405	149.39679571413	27
0	10417	149.610415106762	26
0	10439	149.986783186115	23
0	10447	150.113944186347	23
0	10453	150.207744997908	23
0	10471	150.547038069372	21
0	10477	150.586844169871	21
0	10479	150.657697777415	22
0	10491	150.819996779122	21
0	10493	150.855721958649	22
0	10505	151.036733059795	21
0	10513	151.116472907378	21
0	10515	151.170135115675	22
0	10531	151.437237613026	20
0	10539	151.490955986735	20
0	10541	151.564511662229	21
0	10557	151.84036779452	19
0	10559	151.87145700083	20
0	10571	151.999536633137	19
0	10583	152.209418475994	18
0	10585	152.212763951907	19
0	10587	152.259272526282	20
0	10595	152.314775698813	20
0	10597	152.314914130074	21
0	10599	152.324774080094	22
0	10601	152.353234098493	23
0	10623	152.737425728839	20
0	10629	152.775732535547	20
0	10631	152.861349151287	21
0	10643	153.057090990511	20
0	10651	153.160283060803	20
0	10657	153.221624867415	20
0	10659	153.266953314496	21
0	10667	153.325757695664	21
0	10673	153.435933887396	21
0	10679	153.476896603404	21
0	10683	153.561723284388	22
0	10695	153.774316341382	21
0	10707	153.92334125005	20
0	10723	154.213432154168	18
0	10735	154.443792841831	17
0	10763	154.925262641804	13
0	10769	154.977065547516	13
0	10771	155.024344901987	14
0	10783	155.25005361615	13
0	10805	155.58862770644	10
0	10807	155.59535740316	11
0	10815	155.752321238621	11
0	10821	155.867991167591	11
0	10833	155.980596447361	10
0	10835	156.006871988355	11
0	10837	156.034961103905	12
0	10845	156.112368308173	12
0	10847	156.136761275159	13
0	10859	156.285057211597	12
0	10861	156.303215133363	13
0	10867	156.440487533946	13
0	10885	156.696566925423	11
0	10891	156.824375554812	11
0	10893	156.85920041823	12
0	10901	156.925150698237	12
0	10907	156.98549857748	12
0	10909	157.007068561608	13
0	10915	157.075182089418	13
0	10919	157.098194666234	14
0	10925	157.248779780542	14
0	10933	157.325452318755	14
0	10945	157.511392975997	13
0	10947	157.568985273284	14
0	10953	157.58395979411	14
0	10971	157.952806991658	12
0	10977	158.008477258068	12
0	10979	158.044262525301	13
0	10991	158.22932108996	12
0	10993	158.237547346507	13
0	11005	158.407940506949	12
0	11013	158.537724163864	12
0	11015	158.548528770551	13
0	11037	158.919127834283	10
0	11039	158.936133543162	11
0	11051	159.088500571196	10
0	11053	159.124769684817	11
0	11055	159.153144695071	12
0	11057	159.16097967518	13
0	11059	159.16470428441	14
0	11065	159.21998421776	14
0	11067	159.272227142095	15
0	11075	159.283613207826	15
0	11087	159.493782566234	14
0	11093	159.577765916373	14
0	11095	159.634328208475	15
0	11097	159.662638391374	16
0	11105	159.69605793287	16
0	11111	159.786799224864	16
0	11123	160.060601554391	15
0	11125	160.073104109275	16
0	11137	160.221061623408	15
0	11159	160.593549060817	12
0	11167	160.687963186024	12
0	11179	160.957616671416	11
0	11181	160.95788473725	12
0	11187	161.007609384234	12
0	11203	161.275708893209	10
0	11207	161.303439646102	11
0	11213	161.415475554378	11
0	11215	161.444296871169	12
0	11217	161.46971733744	13
0	11225	161.535764726868	13
0	11227	161.538271185623	14
0	11229	161.542352635658	15
0	11231	161.543102270103	16
0	11237	161.645185512008	16
0	11255	161.907468064198	14
0	11257	161.959944108605	15
0	11267	162.078084648464	14
0	11271	162.125470806363	15
0	11277	162.247598824054	15
0	11289	162.413338276121	14
0	11297	162.503988403843	14
0	11303	162.627443790821	14
0	11311	162.704497522898	14
0	11327	163.013137236787	12
0	11329	163.073940399363	13
0	11337	163.117317018314	13
0	11343	163.208994405483	13
0	11355	163.436825379764	12
0	11363	163.542980711394	12
0	11375	163.689934042981	11
0	11377	163.736621260727	12
0	11383	163.780848379628	12
0	11391	163.891180909898	12
0	11397	163.988378549206	12
0	11399	164.04942190351	13
0	11407	164.083469722664	13
0	11409	164.092360145154	14
0	11421	164.299825383394	13
0	11423	164.326374887659	14
0	11425	164.338301374657	15
0	11427	164.346788747038	16
0	11429	164.370669602983	17
0	11435	164.409532959606	17
0	11437	164.429748653231	18
0	11445	164.524250452292	18
0	11451	164.575838624545	18
0	11453	164.621666080851	19
0	11461	164.758406652751	19
0	11473	164.887952319144	18
0	11475	164.962798742636	19
0	11485	165.076137568666	18
0	11489	165.143017437083	19
0	11491	165.158646701333	20
0	11493	165.158701313329	21
0	11499	165.177098707692	21
0	11501	165.232507122177	22
0	11503	165.239167635901	23
0	11505	165.245733954419	24
0	11511	165.276431692673	24
0	11515	165.299783063277	25
0	11517	165.342608866158	26
0	11533	165.612014634656	24
0	11535	165.621253386532	25
0	11537	165.64551128242	26
0	11545	165.737699208248	26
0	11557	165.933130085418	25
0	11563	166.058437894818	25
0	11575	166.220838939198	24
0	11577	166.237944121102	25
0	11579	166.255277873225	26
0	11587	166.297153808451	26
0	11593	166.390221164113	26
0	11601	166.520141097356	26
0	11603	166.532432676171	27
0	11609	166.641294293476	27
0	11617	166.771448504321	27
0	11629	166.964178954046	26
0	11635	167.065641629472	26
0	11643	167.1465206421	26
0	11655	167.313619299619	25
0	11657	167.316228696115	26
0	11663	167.381503058169	26
0	11665	167.387405963455	27
0	11677	167.633755426373	26
0	11679	167.642100228129	27
0	11681	167.647161049061	28
0	11689	167.71996333736	28
0	11691	167.754620038273	29
0	11703	167.895313092801	28
0	11709	168.020858159951	28
0	11711	168.024138715423	29
0	11717	168.078285964789	29
0	11721	168.139293043917	30
0	11723	168.158282219663	31
0	11735	168.332463621809	30
0	11737	168.343804094028	31
0	11743	168.454248774527	31
0	11755	168.624261167453	30
0	11763	168.703208826937	30
0	11765	168.767291434087	31
0	11771	168.856161836848	31
0	11783	169.070109589146	30
0	11801	169.29690862823	28
0	11807	169.429067638848	28
0	11815	169.514652560992	28
0	11817	169.567369439962	29
0	11823	169.62215630936	29
0	11825	169.668918717087	30
0	11837	169.790304773393	29
0	11839	169.862797117024	30
0	11847	169.906990435911	30
0	11859	170.126866964878	29
0	11881	170.487732466571	26
0	11887	170.621398570446	26
0	11899	170.827207688211	25
0	11901	170.827724316821	26
0	11903	170.84476205269	27
0	11911	170.963230667755	27
0	11921	171.078471769693	26
0	11935	171.330430785589	25
0	11937	171.333897255845	26
0	11943	171.457841971723	26
0	11955	171.674304689291	25
0	11963	171.693785298943	25
0	11975	171.880123897323	24
0	11977	171.946195406665	25
0	11983	172.01755652199	25
0	11985	172.032675564634	26
0	11987	172.046336450603	27
0	11995	172.090808296099	27
0	12001	172.187955091456	27
0	12013	172.464603108262	26
0	12021	172.491959594487	26
0	12033	172.748751866463	25
0	12039	172.848412794378	25
0	12047	172.881657986536	25
0	12053	172.999991938872	25
0	12055	173.041487597144	26
0	12057	173.052721065209	27
0	12065	173.144403368939	27
0	12071	173.209210404907	27
0	12089	173.539428800152	25
0	12095	173.62751956188	25
0	12097	173.643513122267	26
0	12099	173.672765929559	27
0	12107	173.702460635437	27
0	12109	173.72490135579	28
0	12121	173.931697587306	27
0	12127	174.033268854612	27
0	12135	174.100975025848	27
0	12141	174.243996960674	27
0	12153	174.473221923258	26
0	12161	174.517711770157	26
0	12163	174.53823205199	27
0	12169	174.661640054664	27
0	12177	174.737711714847	27
0	12183	174.826233399312	27
0	12185	174.865725928521	28
0	12197	175.031585267212	27
0	12199	175.069644357143	28
0	12207	175.092469019463	28
0	12209	175.151686499861	29
0	12221	175.310844711169	28
0	12223	175.367597969552	29
0	12229	175.398578183008	29
0	12231	175.442793200201	30
0	12237	175.47821306161	30
0	12251	175.724689075252	29
0	12273	176.107146040896	26
0	12279	176.238727464075	26
0	12281	176.243438047824	27
0	12289	176.373466962027	27
0	12295	176.39450865235	27
0	12297	176.428745493636	28
0	12305	176.502324826337	28
0	12311	176.588530989067	28
0	12313	176.635690561112	29
0	12325	176.786731042981	28
0	12327	176.814451386833	29
0	12335	176.97321431559	29
0	12347	177.088590691927	28
0	12349	177.130831036867	29
0	12355	177.241466343363	29
0	12367	177.388814121028	28
0	12385	177.720520858799	26
0	12391	177.853661293844	26
0	12403	178.064528042033	25
0	12409	178.079785656847	25
0	12441	178.676409226822	20
0	12453	178.877360088492	19
0	12457	178.922441069555	20
0	12463	178.980659174869	20
0	12465	178.985288125461	21
0	12467	179.051921213063	22
0	12475	179.09126945276	22
0	12477	179.150757078349	23
0	12483	179.21945664194	23
0	12491	179.303353970233	23
0	12493	179.322251821905	24
0	12499	179.41931839669	24
0	12501	179.428209832925	25
0	12509	179.497161125117	25
0	12511	179.557442215917	26
0	12523	179.759023962351	25
0	12539	180.028832266646	23
0	12547	180.127647131963	23
0	12553	180.271686292464	23
0	12561	180.323007130587	23
0	12563	180.360329103423	24
0	12569	180.414233054277	24
0	12581	180.633709759156	23
0	12593	180.800225231894	22
0	12601	180.919718045231	22
0	12603	180.962518560277	23
0	12609	181.024758362712	23
0	12611	181.048514917005	24
0	12617	181.07925164428	24
0	12621	181.085373587492	25
0	12623	181.171065897641	26
0	12639	181.379834923954	24
0	12641	181.401513926529	25
0	12653	181.652286160055	24
0	12665	181.787468368662	23
0	12667	181.800265363149	24
0	12683	182.076613007208	22
0	12687	182.117330725262	23
0	12693	182.224996590147	23
0	12695	182.244278889027	24
0	12703	182.373375159586	24
0	12709	182.385693496815	24
0	12711	182.403664602739	25
0	12723	182.633789939342	24
0	12731	182.771711474416	24
0	12737	182.777567359248	24
0	12739	182.846354836396	25
0	12761	183.240015449377	22
0	12763	183.249159314181	23
0	12765	183.25930179252	24
0	12773	183.308150721159	24
0	12785	183.507272285209	23
0	12791	183.638001423709	23
0	12799	183.721589180463	23
0	12805	183.807914034889	23
0	12807	183.853787569023	24
0	12815	183.890371052937	24
0	12817	183.932278133294	25
0	12843	184.381007974417	21
0	12851	184.522627322467	21
0	12857	184.607966391089	21
0	12859	184.645737761643	22
0	12877	184.935687627011	20
0	12883	185.042783131648	20
0	12891	185.12482988844	20
0	12897	185.197671285981	20
0	12905	185.280835581252	20
0	12907	185.347187749745	21
0	12909	185.352440358781	22
0	12925	185.583867848642	20
0	12927	185.594858126161	21
0	12933	185.675746495023	21
0	12937	185.771051837641	22
0	12949	185.946418239374	21
0	12959	186.07795848863	20
0	12967	186.207265682418	20
0	12969	186.235241362657	21
0	12971	186.23917338765	22
0	12989	186.57152960029	20
0	13001	186.71985862012	19
0	13007	186.85504330581	19
0	13013	186.87948899507	19
0	13017	186.906671346971	20
0	13029	187.140130169178	19
0	13035	187.243530751452	19
0	13037	187.247918019247	20
0	13045	187.289432658696	20
0	13047	187.329939981614	21
0	13053	187.459944582532	21
0	13055	187.470450965822	22
0	13063	187.558300514872	22
0	13069	187.622848491975	22
0	13077	187.764175473504	22
0	13089	187.935667783914	21
0	13091	187.964631353707	22
0	13097	188.000040233717	22
0	13109	188.269300220484	21
0	13117	188.285662161835	21
0	13143	188.781865436325	17
0	13145	188.82195305769	18
0	13147	188.839929466507	19
0	13159	189.008065906032	18
0	13167	189.079995583259	18
0	13169	189.095122527763	19
0	13181	189.294248176897	18
0	13183	189.320042699826	19
0	13185	189.362767461457	20
0	13187	189.369901162099	21
0	13193	189.397692466779	21
0	13201	189.520011440834	21
0	13207	189.651340076369	21
0	13215	189.701631318037	21
0	13237	190.081134551409	18
0	13239	190.118362729723	19
0	13245	190.188429833939	19
0	13253	190.315237026324	19
0	13255	190.365065908045	20
0	13261	190.406009839312	20
0	13263	190.455756837054	21
0	13275	190.58586810084	20
0	13283	190.744102165869	20
0	13295	190.912949948671	19
0	13301	191.035388252269	19
0	13303	191.059935200483	20
0	13311	191.098342357653	20
0	13327	191.462613326455	18
0	13349	191.829869284979	15
0	13351	191.847585726071	16
0	13363	192.069760446321	15
0	13371	192.10412798482	15
0	13377	192.22483510091	15
0	13379	192.244655232965	16
0	13387	192.302775963276	16
0	13389	192.345165197308	17
0	13391	192.368395733723	18
0	13397	192.433800089975	18
0	13405	192.54315202769	18
0	13411	192.617003281392	18
0	13419	192.757200976092	18
0	13431	192.94934636969	17
0	13437	193.042000060744	17
0	13449	193.262226905288	16
0	13457	193.330668799444	16
0	13459	193.355528251871	17
0	13461	193.368089286805	18
0	13467	193.465612191048	18
0	13479	193.619198677626	17
0	13481	193.63102029713	18
0	13489	193.698667285117	18
0	13491	193.760095312979	19
0	13503	193.952588896745	18
0	13509	193.991498902585	18
0	13511	194.005980516033	19
0	13513	194.044033487042	20
0	13535	194.379529924978	17
0	13537	194.445420779662	18
0	13545	194.512991011238	18
0	13551	194.643860527211	18
0	13553	194.651370644297	19
0	13555	194.658539866102	20
0	13563	194.691406071869	20
0	13575	194.902745900297	19
0	13587	195.135618489015	18
0	13593	195.268350786264	18
0	13601	195.30900004302	18
0	13603	195.328419140898	19
0	13623	195.679335601812	16
0	13637	195.959287878658	15
0	13643	196.018008415788	15
0	13651	196.088593615299	15
0	13653	196.134329406444	16
0	13699	196.990431232375	8
0	13707	197.146386360547	8
0	13709	197.168358735097	9
0	13715	197.23130452523	9
0	13723	197.307856572614	9
0	13725	197.31571399531	10
0	13727	197.349997967896	11
0	13739	197.526514145853	10
0	13741	197.562779647157	11
0	13753	197.719064802598	10
0	13759	197.808484801619	10
0	13767	197.880843978429	10
0	13779	198.135589103518	9
0	13781	198.136562154111	10
0	13793	198.300173128171	9
0	13795	198.314832707426	10
0	13801	198.443546918007	10
0	13809	198.568023125886	10
0	13815	198.649933580225	10
0	13823	198.739302769399	10
0	13839	198.994790848373	8
0	13847	199.115202964385	8
0	13853	199.183001516556	8
0	13855	199.227776344032	9
0	13867	199.434790577848	8
0	13875	199.534047489633	8
0	13887	199.713613183517	7
0	13889	199.770675459317	8
0	13895	199.794734362093	8
0	13897	199.84814396089	9
0	13909	199.995645792347	8
1	3	0.079587450457	0
1	6	0.179587450457	1
1	16	0.29503656511	2
1	26	0.480996986317	3
1	31	0.580996986317	4
1	42	0.768473833052	5
1	47	0.868473833052	6
1	58	1.03509035247	7
1	65	1.13509035247	8
1	70	1.23509035247	9
1	78	1.33509035247	10
1	88	1.43509035247	11
1	94	1.53509035247	12
1	98	1.63509035247	13
1	108	1.73509035247	14
1	112	1.83509035247	15
1	124	1.992774560922	16
1	133	2.092774560922	17
1	138	2.192774560922	18
1	144	2.292774560922	19
1	150	2.392774560922	20
1	158	2.492774560922	21
1	164	2.592774560922	22
1	174	2.692774560922	23
1	180	2.792774560922	24
1	186	2.892774560922	25
1	196	2.99633731495	26
1	206	3.177174241377	27
1	215	3.277174241377	28
1	224	3.377174241377	29
1	230	3.477174241377	30
1	238	3.577174241377	31
1	242	3.677174241377	32
1	248	3.777174241377	33
1	252	3.877174241377	34
1	260	3.977174241377	35
1	268	4.077174241377	36
1	274	4.177174241377	37
1	280	4.277174241377	38
1	292	4.454833220384	39
1	306	4.839355407298	40
1	311	4.939355407298	41
1	320	5.064050280272	42
1	330	5.225450487761	43
1	337	5.325450487761	44
1	342	5.425450487761	45
1	350	5.525450487761	46
1	360	5.626087367413	47
1	367	5.726087367413	48
1	372	5.826087367413	49
1	380	5.926087367413	50
1	388	6.026087367413	51
1	396	6.126087367413	52
1	400	6.226087367413	53
1	412	6.337571367214	54
1	420	6.479707835223	55
1	429	6.579707835223	56
1	434	6.679707835223	57
1	446	6.779707835223	58
1	450	6.879707835223	59
1	458	6.979707835223	60
1	466	7.079707835223	61
1	474	7.179707835223	62
1	486	7.279707835223	63
1	496	7.379707835223	64
1	504	7.479707835223	65
1	512	7.579707835223	66
1	518	7.679707835223	67
1	524	7.779707835223	68
1	528	7.879707835223	69
1	536	7.979707835223	70
1	540	8.079707835223	71
1	548	8.179707835223	72
1	554	8.279707835223	73
1	564	8.379707835223	74
1	570	8.479707835223	75
1	578	8.579707835223	76
1	582	8.679707835223	77
1	590	8.779707835223	78
1	600	8.879707835223	79
1	606	8.979707835223	80
1	610	9.079707835223	81
1	616	9.179707835223	82
1	622	9.279707835223	83
1	630	9.379707835223	84
1	636	9.479707835223	85
1	646	9.579707835223	86
1	656	9.679707835223	87
1	662	9.779707835223	88
1	670	9.879707835223	89
1	680	9.979707835223	90
1	686	10.079707835223	91
1	698	10.179707835223	92
1	704	10.279707835223	93
1	710	10.379707835223	94
1	714	10.479707835223	95
1	720	10.579707835223	96
1	724	10.679707835223	97
1	732	10.779707835223	98
1	736	10.879707835223	99
1	742	10.979707835223	100
1	750	11.079707835223	101
1	760	11.179707835223	102
1	766	11.279707835223	103
1	774	11.379707835223	104
1	778	11.479707835223	105
1	784	11.579707835223	106
1	788	11.679707835223	107
1	794	11.779707835223	108
1	800	11.879707835223	109
1	808	11.979707835223	110
1	816	12.079707835223	111
1	826	12.179707835223	112
1	834	12.279707835223	113
1	844	12.379707835223	114
1	852	12.479707835223	115
1	860	12.579707835223	116
1	868	12.679707835223	117
1	876	12.779707835223	118
1	884	12.879707835223	119
1	890	12.979707835223	120
1	894	13.079707835223	121
1	902	13.179707835223	122
1	908	13.279707835223	123
1	916	13.379707835223	124
1	920	13.479707835223	125
1	932	13.579707835223	126
1	938	13.679707835223	127
1	946	13.779707835223	128
1	950	13.879707835223	129
1	960	13.979707835223	130
1	964	14.079707835223	131
1	970	14.179707835223	132
1	976	14.279707835223	133
1	982	14.379707835223	134
1	986	14.479707835223	135
1	992	14.579707835223	136
1	998	14.679707835223	137
1	1004	14.779707835223	138
1	1010	14.879707835223	139
1	1020	14.979707835223	140
1	1024	15.079707835223	141
1	1030	15.179707835223	142
1	1034	15.279707835223	143
1	1044	15.379707835223	144
1	1050	15.479707835223	145
1	1058	15.579707835223	146
1	1068	15.679707835223	147
1	1078	15.779707835223	148
1	1082	15.879707835223	149
1	1088	15.979707835223	150
1	1092	16.079707835223	151
1	1102	16.179707835223	152
1	1110	16.279707835223	153
1	1120	16.379707835223	154
1	1128	16.479707835223	155
1	1134	16.579707835223	156
1	1140	16.679707835223	157
1	1148	16.779707835223	158
1	1152	16.879707835223	159
1	1160	16.979707835223	160
1	1168	17.079707835223	161
1	1176	17.179707835223	162
1	1182	17.279707835223	163
1	1190	17.379707835223	164
1	1194	17.479707835223	165
1	1204	17.579707835223	166
1	1212	17.679707835223	167
1	1218	17.779707835223	168
1	1222	17.879707835223	169
1	1232	17.979707835223	170
1	1236	18.079707835223	171
1	1244	18.179707835223	172
1	1252	18.279707835223	173
1	1258	18.379707835223	174
1	1262	18.479707835223	175
1	1272	18.579707835223	176
1	1280	18.679707835223	177
1	1288	18.779707835223	178
1	1292	18.879707835223	179
1	1302	18.979707835223	180
1	1308	19.079707835223	181
1	1316	19.179707835223	182
1	1320	19.279707835223	183
1	1330	19.379707835223	184
1	1340	19.479707835223	185
1	1348	19.579707835223	186
1	1358	19.679707835223	187
1	1364	19.779707835223	188
1	1370	19.879707835223	189
1	1382	19.979707835223	190
1	1388	20.079707835223	191
1	1398	20.179707835223	192
1	1404	20.279707835223	193
1	1410	20.379707835223	194
1	1418	20.479707835223	195
1	1424	20.579707835223	196
1	1428	20.679707835223	197
1	1436	20.779707835223	198
1	1444	20.879707835223	199
1	1452	20.979707835223	200
1	1458	21.079707835223	201
1	1466	21.179707835223	202
1	1472	21.279707835223	203
1	1478	21.379707835223	204
1	1484	21.479707835223	205
1	1492	21.579707835223	206
1	1500	21.679707835223	207
1	1506	21.779707835223	208
1	1512	21.879707835223	209
1	1518	21.979707835223	210
1	1522	22.079707835223	211
1	1530	22.179707835223	212
1	1536	22.279707835223	213
1	1544	22.379707835223	214
1	1550	22.479707835223	215
1	1556	22.579707835223	216
1	1562	22.679707835223	217
1	1568	22.779707835223	218
1	1572	22.879707835223	219
1	1580	22.979707835223	220
1	1584	23.079707835223	221
1	1596	23.179707835223	222
1	1602	23.279707835223	223
1	1608	23.379707835223	224
1	1614	23.479707835223	225
1	1624	23.579707835223	226
1	1630	23.679707835223	227
1	1636	23.779707835223	228
1	1642	23.879707835223	229
1	1650	23.979707835223	230
1	1658	24.079707835223	231
1	1664	24.179707835223	232
1	1670	24.279707835223	233
1	1676	24.379707835223	234
1	1680	24.479707835223	235
1	1688	24.579707835223	236
1	1692	24.679707835223	237
1	1700	24.779707835223	238
1	1706	24.879707835223	239
1	1714	24.979707835223	240
1	1720	25.079707835223	241
1	1730	25.179707835223	242
1	1734	25.279707835223	243
1	1750	25.481070808601	244
1	1753	25.581070808601	245
1	1762	25.681070808601	246
1	1768	25.781070808601	247
1	1776	25.881070808601	248
1	1786	25.981070808601	249
1	1796	26.081070808601	250
1	1800	26.181070808601	251
1	1808	26.281070808601	252
1	1818	26.381070808601	253
1	1826	26.481070808601	254
1	1832	26.581070808601	255
1	1840	26.681070808601	256
1	1846	26.781070808601	257
1	1852	26.881070808601	258
1	1862	26.981070808601	259
1	1874	27.081070808601	260
1	1880	27.181070808601	261
1	1888	27.281070808601	262
1	1898	27.381070808601	263
1	1904	27.481070808601	264
1	1910	27.581070808601	265
1	1916	27.681070808601	266
1	1920	27.781070808601	267
1	1928	27.881070808601	268
1	1936	27.981070808601	269
1	1946	28.081070808601	270
1	1950	28.181070808601	271
1	1956	28.281070808601	272
1	1968	28.381070808601	273
1	1976	28.481070808601	274
1	1980	28.581070808601	275
1	1986	28.681070808601	276
1	1990	28.781070808601	277
1	1998	28.881070808601	278
1	2002	28.981070808601	279
1	2012	29.081070808601	280
1	2016	29.181070808601	281
1	2024	29.281070808601	282
1	2030	29.381070808601	283
1	2038	29.481070808601	284
1	2048	29.581070808601	285
1	2054	29.681070808601	286
1	2060	29.781070808601	287
1	2068	29.881070808601	288
1	2074	29.981070808601	289
1	2082	30.081070808601	290
1	2086	30.181070808601	291
1	2092	30.281070808601	292
1	2096	30.381070808601	293
1	2102	30.481070808601	294
1	2106	30.581070808601	295
1	2112	30.681070808601	296
1	2118	30.781070808601	297
1	2126	30.881070808601	298
1	2132	30.981070808601	299
1	2138	31.081070808601	300
1	2144	31.181070808601	301
1	2156	31.322416925743	302
1	2165	31.422416925743	303
1	2172	31.522416925743	304
1	2180	31.622416925743	305
1	2188	31.722416925743	306
1	2192	31.822416925743	307
1	2200	31.922416925743	308
1	2204	32.022416925743	309
1	2212	32.122416925743	310
1	2216	32.222416925743	311
1	2226	32.322416925743	312
1	2234	32.422416925743	313
1	2246	32.522416925743	314
1	2250	32.622416925743	315
1	2256	32.722416925743	316
1	2260	32.822416925743	317
1	2268	32.922416925743	318
1	2274	33.022416925743	319
1	2284	33.122416925743	320
1	2290	33.222416925743	321
1	2300	33.322416925743	322
1	2304	33.422416925743	323
1	2312	33.522416925743	324
1	2318	33.622416925743	325
1	2324	33.722416925743	326
1	2328	33.822416925743	327
1	2338	33.922416925743	328
1	2342	34.022416925743	329
1	2354	34.122416925743	330
1	2358	34.222416925743	331
1	2368	34.322416925743	332
1	2372	34.422416925743	333
1	2378	34.522416925743	334
1	2384	34.622416925743	335
1	2396	34.730087006073	336
1	2404	34.868716141275	337
1	2413	34.968716141275	338
1	2418	35.068716141275	339
1	2436	35.168716141275	340
1	2442	35.268716141275	341
1	2450	35.368716141275	342
1	2458	35.468716141275	343
1	2464	35.568716141275	344
1	2470	35.668716141275	345
1	2478	35.768716141275	346
1	2482	35.868716141275	347
1	2490	35.968716141275	348
1	2494	36.068716141275	349
1	2500	36.168716141275	350
1	2506	36.268716141275	351
1	2514	36.368716141275	352
1	2520	36.468716141275	353
1	2530	36.568716141275	354
1	2534	36.668716141275	355
1	2544	36.768716141275	356
1	2550	36.868716141275	357
1	2562	36.968716141275	358
1	2566	37.068716141275	359
1	2576	37.168716141275	360
1	2580	37.268716141275	361
1	2586	37.368716141275	362
1	2590	37.468716141275	363
1	2596	37.568716141275	364
1	2602	37.668716141275	365
1	2608	37.768716141275	366
1	2612	37.868716141275	367
1	2622	37.968716141275	368
1	2628	38.068716141275	369
1	2636	38.168716141275	370
1	2642	38.268716141275	371
1	2648	38.368716141275	372
1	2654	38.468716141275	373
1	2662	38.568716141275	374
1	2668	38.668716141275	375
1	2676	38.768716141275	376
1	2692	39.081653423165	377
1	2695	39.181653423165	378
1	2706	39.281653423165	379
1	2718	39.381653423165	380
1	2724	39.481653423165	381
1	2728	39.581653423165	382
1	2736	39.681653423165	383
1	2742	39.781653423165	384
1	2750	39.881653423165	385
1	2756	39.981653423165	386
1	2764	40.081653423165	387
1	2768	40.181653423165	388
1	2774	40.281653423165	389
1	2782	40.381653423165	390
1	2788	40.481653423165	391
1	2802	40.581653423165	392
1	2812	40.681653423165	393
1	2818	40.781653423165	394
1	2824	40.881653423165	395
1	2830	40.981653423165	396
1	2838	41.081653423165	397
1	2842	41.181653423165	398
1	2848	41.281653423165	399
1	2852	41.381653423165	400
1	2862	41.481653423165	401
1	2870	41.581653423165	402
1	2880	41.681653423165	403
1	2884	41.781653423165	404
1	2894	41.881653423165	405
1	2898	41.981653423165	406
1	2906	42.081653423165	407
1	2914	42.181653423165	408
1	2922	42.281653423165	409
1	2928	42.381653423165	410
1	2936	42.481653423165	411
1	2942	42.581653423165	412
1	2948	42.681653423165	413
1	2954	42.781653423165	414
1	2962	42.881653423165	415
1	2966	42.981653423165	416
1	2972	43.081653423165	417
1	2976	43.181653423165	418
1	2982	43.281653423165	419
1	2988	43.381653423165	420
1	3000	43.481653423165	421
1	3004	43.581653423165	422
1	3012	43.681653423165	423
1	3016	43.781653423165	424
1	3030	43.881653423165	425
1	3036	43.981653423165	426
1	3044	44.081653423165	427
1	3048	44.181653423165	428
1	3056	44.281653423165	429
1	3062	44.381653423165	430
1	3068	44.481653423165	431
1	3076	44.581653423165	432
1	3084	44.681653423165	433
1	3090	44.781653423165	434
1	3098	44.881653423165	435
1	3102	44.981653423165	436
1	3112	45.081653423165	437
1	3120	45.181653423165	438
1	3126	45.281653423165	439
1	3132	45.381653423165	440
1	3142	45.481653423165	441
1	3148	45.581653423165	442
1	3156	45.681653423165	443
1	3160	45.781653423165	444
1	3168	45.881653423165	445
1	3174	45.981653423165	446
1	3182	46.081653423165	447
1	3186	46.181653423165	448
1	3192	46.281653423165	449
1	3200	46.381653423165	450
1	3206	46.481653423165	451
1	3216	46.581653423165	452
1	3222	46.681653423165	453
1	3228	46.781653423165	454
1	3234	46.881653423165	455
1	3244	47.024022061063	456
1	3251	47.124022061063	457
1	3256	47.224022061063	458
1	3268	47.393611538692	459
1	3279	47.493611538692	460
1	3282	47.593611538692	461
1	3288	47.693611538692	462
1	3298	47.800251525779	463
1	3305	47.900251525779	464
1	3312	48.000251525779	465
1	3322	48.100251525779	466
1	3330	48.200251525779	467
1	3338	48.300251525779	468
1	3344	48.400251525779	469
1	3352	48.500251525779	470
1	3364	48.600251525779	471
1	3372	48.700251525779	472
1	3376	48.800251525779	473
1	3384	48.900251525779	474
1	3388	49.000251525779	475
1	3396	49.100251525779	476
1	3404	49.200251525779	477
1	3412	49.300251525779	478
1	3418	49.400251525779	479
1	3430	49.500251525779	480
1	3436	49.600251525779	481
1	3444	49.700251525779	482
1	3452	49.800251525779	483
1	3460	49.900251525779	484
1	3464	50.000251525779	485
1	3474	50.100251525779	486
1	3484	50.200251525779	487
1	3496	50.300251525779	488
1	3502	50.400251525779	489
1	3508	50.500251525779	490
1	3512	50.600251525779	491
1	3522	50.700251525779	492
1	3526	50.800251525779	493
1	3534	50.900251525779	494
1	3540	51.000251525779	495
1	3548	51.100251525779	496
1	3554	51.200251525779	497
1	3560	51.300251525779	498
1	3570	51.400251525779	499
1	3576	51.500251525779	500
1	3584	51.600251525779	501
1	3590	51.700251525779	502
1	3596	51.800251525779	503
1	3606	51.900251525779	504
1	3610	52.000251525779	505
1	3616	52.100251525779	506
1	3624	52.200251525779	507
1	3636	52.300251525779	508
1	3648	52.400251525779	509
1	3656	52.500251525779	510
1	3660	52.600251525779	511
1	3666	52.700251525779	512
1	3674	52.800251525779	513
1	3682	52.900251525779	514
1	3686	53.000251525779	515
1	3694	53.100251525779	516
1	3700	53.200251525779	517
1	3706	53.300251525779	518
1	3710	53.400251525779	519
1	3716	53.500251525779	520
1	3720	53.600251525779	521
1	3730	53.700251525779	522
1	3736	53.800251525779	523
1	3748	53.900251525779	524
1	3754	54.000251525779	525
1	3764	54.100251525779	526
1	3768	54.200251525779	527
1	3774	54.300251525779	528
1	3778	54.400251525779	529
1	3786	54.500251525779	530
1	3790	54.600251525779	531
1	3798	54.700251525779	532
1	3802	54.800251525779	533
1	3810	54.900251525779	534
1	3820	55.000251525779	535
1	3826	55.100251525779	536
1	3830	55.200251525779	537
1	3836	55.300251525779	538
1	3844	55.400251525779	539
1	3852	55.500251525779	540
1	3856	55.600251525779	541
1	3864	55.700251525779	542
1	3868	55.800251525779	543
1	3874	55.900251525779	544
1	3882	56.000251525779	545
1	3888	56.100251525779	546
1	3892	56.200251525779	547
1	3900	56.300251525779	548
1	3906	56.400251525779	549
1	3912	56.500251525779	550
1	3918	56.600251525779	551
1	3926	56.700251525779	552
1	3932	56.800251525779	553
1	3940	56.900251525779	554
1	3944	57.000251525779	555
1	3952	57.100251525779	556
1	3960	57.200251525779	557
1	3966	57.300251525779	558
1	3972	57.400251525779	559
1	3978	57.500251525779	560
1	3986	57.600251525779	561
1	3994	57.700251525779	562
1	4000	57.800251525779	563
1	4008	57.900251525779	564
1	4012	58.000251525779	565
1	4018	58.100251525779	566
1	4024	58.200251525779	567
1	4032	58.300251525779	568
1	4042	58.408410483143	569
1	4049	58.508410483143	570
1	4054	58.608410483143	571
1	4070	58.976845751062	572
1	4082	59.397031693687	573
1	4087	59.497031693687	574
1	4096	59.602178997619	575
1	4105	59.702178997619	576
1	4110	59.802178997619	577
1	4120	59.902178997619	578
1	4130	60.002178997619	579
1	4136	60.102178997619	580
1	4144	60.202178997619	581
1	4154	60.302178997619	582
1	4164	60.402178997619	583
1	4170	60.502178997619	584
1	4174	60.602178997619	585
1	4180	60.702178997619	586
1	4188	60.802178997619	587
1	4196	60.902178997619	588
1	4200	61.002178997619	589
1	4208	61.102178997619	590
1	4214	61.202178997619	591
1	4220	61.302178997619	592
1	4224	61.402178997619	593
1	4232	61.502178997619	594
1	4238	61.602178997619	595
1	4244	61.702178997619	596
1	4248	61.802178997619	597
1	4256	61.902178997619	598
1	4262	62.002178997619	599
1	4276	62.223586714201	600
1	4281	62.323586714201	601
1	4290	62.425325847562	602
1	4299	62.525325847562	603
1	4308	62.625325847562	604
1	4316	62.725325847562	605
1	4322	62.825325847562	606
1	4330	62.925325847562	607
1	4334	63.025325847562	608
1	4344	63.125325847562	609
1	4352	63.225325847562	610
1	4358	63.325325847562	611
1	4362	63.425325847562	612
1	4370	63.525325847562	613
1	4380	63.625325847562	614
1	4388	63.725325847562	615
1	4394	63.825325847562	616
1	4404	63.925325847562	617
1	4408	64.025325847562	618
1	4420	64.125325847562	619
1	4426	64.225325847562	620
1	4434	64.325325847562	621
1	4440	64.425325847562	622
1	4448	64.525325847562	623
1	4456	64.625325847562	624
1	4464	64.725325847562	625
1	4470	64.825325847562	626
1	4478	64.925325847562	627
1	4482	65.025325847562	628
1	4490	65.125325847562	629
1	4494	65.225325847562	630
1	4504	65.325325847562	631
1	4508	65.425325847562	632
1	4524	65.525325847562	633
1	4532	65.625325847562	634
1	4542	65.725325847562	635
1	4550	65.825325847562	636
1	4558	65.925325847562	637
1	4566	66.025325847562	638
1	4574	66.125325847562	639
1	4580	66.225325847562	640
1	4588	66.325325847562	641
1	4592	66.425325847562	642
1	4602	66.525325847562	643
1	4608	66.625325847562	644
1	4616	66.725325847562	645
1	4624	66.825325847562	646
1	4632	66.925325847562	647
1	4636	67.025325847562	648
1	4648	67.125325847562	649
1	4654	67.225325847562	650
1	4664	67.325325847562	651
1	4668	67.425325847562	652
1	4676	67.525325847562	653
1	4680	67.625325847562	654
1	4688	67.725325847562	655
1	4694	67.825325847562	656
1	4702	67.925325847562	657
1	4714	68.025325847562	658
1	4724	68.125325847562	659
1	4730	68.225325847562	660
1	4736	68.325325847562	661
1	4744	68.425325847562	662
1	4754	68.525325847562	663
1	4760	68.625325847562	664
1	4768	68.725325847562	665
1	4772	68.825325847562	666
1	4782	68.925325847562	667
1	4786	69.025325847562	668
1	4794	69.125325847562	669
1	4800	69.225325847562	670
1	4810	69.325325847562	671
1	4818	69.425325847562	672
1	4824	69.525325847562	673
1	4828	69.625325847562	674
1	4838	69.725325847562	675
1	4844	69.825325847562	676
1	4854	69.925325847562	677
1	4858	70.025325847562	678
1	4864	70.125325847562	679
1	4872	70.225325847562	680
1	4880	70.325325847562	681
1	4888	70.425325847562	682
1	4894	70.525325847562	683
1	4902	70.625325847562	684
1	4910	70.725325847562	685
1	4918	70.825325847562	686
1	4928	70.925325847562	687
1	4934	71.025325847562	688
1	4944	71.125325847562	689
1	4952	71.225325847562	690
1	4964	71.325325847562	691
1	4968	71.425325847562	692
1	4974	71.525325847562	693
1	4980	71.625325847562	694
1	4992	71.725325847562	695
1	4996	71.825325847562	696
1	5004	71.925325847562	697
1	5010	72.025325847562	698
1	5020	72.125325847562	699
1	5026	72.225325847562	700
1	5032	72.325325847562	701
1	5038	72.425325847562	702
1	5044	72.525325847562	703
1	5052	72.625325847562	704
1	5060	72.725325847562	705
1	5064	72.825325847562	706
1	5072	72.925325847562	707
1	5078	73.025325847562	708
1	5084	73.125325847562	709
1	5092	73.225325847562	710
1	5100	73.325325847562	711
1	5104	73.425325847562	712
1	5114	73.525325847562	713
1	5118	73.625325847562	714
1	5128	73.725325847562	715
1	5134	73.825325847562	716
1	5142	73.925325847562	717
1	5148	74.025325847562	718
1	5156	74.125325847562	719
1	5164	74.225325847562	720
1	5172	74.325325847562	721
1	5176	74.425325847562	722
1	5186	74.525325847562	723
1	5190	74.625325847562	724
1	5202	74.725325847562	725
1	5208	74.825325847562	726
1	5216	74.925325847562	727
1	5220	75.025325847562	728
1	5226	75.125325847562	729
1	5234	75.225325847562	730
1	5244	75.325325847562	731
1	5250	75.425325847562	732
1	5256	75.525325847562	733
1	5260	75.625325847562	734
1	5268	75.725325847562	735
1	5272	75.825325847562	736
1	5280	75.925325847562	737
1	5286	76.025325847562	738
1	5296	76.125325847562	739
1	5300	76.225325847562	740
1	5306	76.325325847562	741
1	5312	76.425325847562	742
1	5320	76.525325847562	743
1	5326	76.625325847562	744
1	5332	76.725325847562	745
1	5338	76.825325847562	746
1	5346	76.925325847562	747
1	5352	77.025325847562	748
1	5358	77.125325847562	749
1	5364	77.225325847562	750
1	5370	77.325325847562	751
1	5374	77.425325847562	752
1	5380	77.525325847562	753
1	5384	77.625325847562	754
1	5392	77.725325847562	755
1	5396	77.825325847562	756
1	5410	77.925325847562	757
1	5416	78.025325847562	758
1	5426	78.125325847562	759
1	5430	78.225325847562	760
1	5436	78.325325847562	761
1	5442	78.425325847562	762
1	5450	78.525325847562	763
1	5454	78.625325847562	764
1	5462	78.725325847562	765
1	5470	78.825325847562	766
1	5478	78.925325847562	767
1	5484	79.025325847562	768
1	5490	79.125325847562	769
1	5496	79.225325847562	770
1	5506	79.325325847562	771
1	5512	79.425325847562	772
1	5518	79.525325847562	773
1	5522	79.625325847562	774
1	5534	79.725325847562	775
1	5542	79.825325847562	776
1	5552	79.925325847562	777
1	5560	80.025325847562	778
1	5566	80.125325847562	779
1	5574	80.225325847562	780
1	5582	80.325325847562	781
1	5586	80.425325847562	782
1	5592	80.525325847562	783
1	5598	80.625325847562	784
1	5608	80.725325847562	785
1	5614	80.825325847562	786
1	5620	80.925325847562	787
1	5624	81.025325847562	788
1	5634	81.125325847562	789
1	5638	81.225325847562	790
1	5648	81.325325847562	791
1	5662	81.425325847562	792
1	5670	81.525325847562	793
1	5676	81.625325847562	794
1	5682	81.725325847562	795
1	5694	81.825325847562	796
1	5702	81.925325847562	797
1	5708	82.025325847562	798
1	5720	82.125325847562	799
1	5730	82.225325847562	800
1	5740	82.325325847562	801
1	5744	82.425325847562	802
1	5758	82.525325847562	803
1	5766	82.625325847562	804
1	5772	82.725325847562	805
1	5776	82.825325847562	806
1	5782	82.925325847562	807
1	5788	83.025325847562	808
1	5798	83.125325847562	809
1	5802	83.225325847562	810
1	5808	83.325325847562	811
1	5812	83.425325847562	812
1	5822	83.525325847562	813
1	5826	83.625325847562	814
1	5832	83.725325847562	815
1	5836	83.825325847562	816
1	5842	83.925325847562	817
1	5850	84.025325847562	818
1	5862	84.125325847562	819
1	5866	84.225325847562	820
1	5874	84.325325847562	821
1	5880	84.425325847562	822
1	5886	84.525325847562	823
1	5894	84.625325847562	824
1	5902	84.725325847562	825
1	5906	84.825325847562	826
1	5912	84.925325847562	827
1	5916	85.025325847562	828
1	5922	85.125325847562	829
1	5932	85.225325847562	830
1	5940	85.325325847562	831
1	5946	85.425325847562	832
1	5952	85.525325847562	833
1	5962	85.625325847562	834
1	5970	85.725325847562	835
1	5976	85.825325847562	836
1	5986	85.925325847562	837
1	5992	86.025325847562	838
1	6000	86.125325847562	839
1	6006	86.225325847562	840
1	6012	86.325325847562	841
1	6018	86.425325847562	842
1	6026	86.525325847562	843
1	6030	86.625325847562	844
1	6038	86.725325847562	845
1	6046	86.825325847562	846
1	6054	86.925325847562	847
1	6062	87.025325847562	848
1	6068	87.125325847562	849
1	6074	87.225325847562	850
1	6082	87.325325847562	851
1	6088	87.425325847562	852
1	6098	87.525325847562	853
1	6104	87.625325847562	854
1	6110	87.725325847562	855
1	6114	87.825325847562	856
1	6122	87.925325847562	857
1	6126	88.025325847562	858
1	6134	88.125325847562	859
1	6140	88.225325847562	860
1	6146	88.325325847562	861
1	6152	88.425325847562	862
1	6162	88.525325847562	863
1	6170	88.625325847562	864
1	6180	88.725325847562	865
1	6184	88.825325847562	866
1	6190	88.925325847562	867
1	6196	89.025325847562	868
1	6202	89.125325847562	869
1	6210	89.225325847562	870
1	6216	89.325325847562	871
1	6220	89.425325847562	872
1	6226	89.525325847562	873
1	6232	89.625325847562	874
1	6240	89.725325847562	875
1	6244	89.825325847562	876
1	6250	89.925325847562	877
1	6256	90.025325847562	878
1	6264	90.125325847562	879
1	6268	90.225325847562	880
1	6274	90.325325847562	881
1	6280	90.425325847562	882
1	6286	90.525325847562	883
1	6294	90.625325847562	884
1	6302	90.725325847562	885
1	6306	90.825325847562	886
1	6312	90.925325847562	887
1	6316	91.025325847562	888
1	6324	91.125325847562	889
1	6336	91.225325847562	890
1	6344	91.325325847562	891
1	6348	91.425325847562	892
1	6354	91.525325847562	893
1	6360	91.625325847562	894
1	6366	91.725325847562	895
1	6372	91.825325847562	896
1	6382	91.925325847562	897
1	6388	92.025325847562	898
1	6398	92.125325847562	899
1	6402	92.225325847562	900
1	6410	92.325325847562	901
1	6416	92.425325847562	902
1	6424	92.525325847562	903
1	6428	92.625325847562	904
1	6436	92.725325847562	905
1	6446	92.825325847562	906
1	6456	92.925325847562	907
1	6464	93.025325847562	908
1	6472	93.125325847562	909
1	6476	93.225325847562	910
1	6486	93.325325847562	911
1	6492	93.425325847562	912
1	6502	93.525325847562	913
1	6510	93.625325847562	914
1	6518	93.725325847562	915
1	6522	93.825325847562	916
1	6530	93.925325847562	917
1	6534	94.025325847562	918
1	6546	94.125325847562	919
1	6550	94.225325847562	920
1	6560	94.325325847562	921
1	6566	94.425325847562	922
1	6572	94.525325847562	923
1	6576	94.625325847562	924
1	6586	94.725325847562	925
1	6592	94.825325847562	926
1	6600	94.925325847562	927
1	6604	95.025325847562	928
1	6612	95.125325847562	929
1	6618	95.225325847562	930
1	6624	95.325325847562	931
1	6628	95.425325847562	932
1	6638	95.525325847562	933
1	6646	95.625325847562	934
1	6652	95.725325847562	935
1	6660	95.825325847562	936
1	6666	95.925325847562	937
1	6670	96.025325847562	938
1	6680	96.125325847562	939
1	6684	96.225325847562	940
1	6690	96.325325847562	941
1	6694	96.425325847562	942
1	6700	96.525325847562	943
1	6704	96.625325847562	944
1	6712	96.725325847562	945
1	6720	96.825325847562	946
1	6726	96.925325847562	947
1	6734	97.025325847562	948
1	6744	97.125325847562	949
1	6752	97.225325847562	950
1	6762	97.325325847562	951
1	6766	97.425325847562	952
1	6778	97.525325847562	953
1	6786	97.625325847562	954
1	6794	97.725325847562	955
1	6798	97.825325847562	956
1	6804	97.925325847562	957
1	6810	98.025325847562	958
1	6816	98.125325847562	959
1	6824	98.225325847562	960
1	6830	98.325325847562	961
1	6834	98.425325847562	962
1	6840	98.525325847562	963
1	6848	98.625325847562	964
1	6856	98.725325847562	965
1	6860	98.825325847562	966
1	6866	98.925325847562	967
1	6872	99.025325847562	968
1	6882	99.125325847562	969
1	6890	99.225325847562	970
1	6896	99.325325847562	971
1	6902	99.425325847562	972
1	6912	99.525325847562	973
1	6918	99.625325847562	974
1	6926	99.725325847562	975
1	6930	99.825325847562	976
1	6936	99.925325847562	977
1	6940	100.025325847562	978
1	6952	100.125325847562	979
1	6958	100.225325847562	980
1	6964	100.325325847562	981
1	6968	100.425325847562	982
1	6976	100.525325847562	983
1	6986	100.625325847562	984
1	6992	100.725325847562	985
1	6998	100.825325847562	986
1	7006	100.925325847562	987
1	7012	101.025325847562	988
1	7024	101.125325847562	989
1	7028	101.225325847562	990
1	7034	101.325325847562	991
1	7044	101.425325847562	992
1	7050	101.525325847562	993
1	7056	101.625325847562	994
1	7066	101.725325847562	995
1	7072	101.825325847562	996
1	7078	101.925325847562	997
1	7084	102.025325847562	998
1	7090	102.125325847562	999
1	7094	102.225325847562	1000
1	7100	102.325325847562	1001
1	7106	102.425325847562	1002
1	7112	102.525325847562	1003
1	7122	102.625325847562	1004
1	7128	102.725325847562	1005
1	7136	102.825325847562	1006
1	7146	102.925325847562	1007
1	7150	103.025325847562	1008
1	7156	103.125325847562	1009
1	7166	103.225325847562	1010
1	7174	103.325325847562	1011
1	7180	103.425325847562	1012
1	7190	103.525325847562	1013
1	7194	103.625325847562	1014
1	7204	103.725325847562	1015
1	7210	103.825325847562	1016
1	7216	103.925325847562	1017
1	7220	104.025325847562	1018
1	7228	104.125325847562	1019
1	7234	104.225325847562	1020
[...]
7	3781	54.400451525779	56
7	3793	54.600451525779	57
7	3805	54.800451525779	58
7	3823	55.000451525779	59
7	3833	55.200451525779	60
7	3847	55.400451525779	61
7	3859	55.600451525779	62
7	3871	55.800451525779	63
7	3885	56.000451525779	64
7	3895	56.200451525779	65
7	3909	56.400451525779	66
7	3921	56.600451525779	67
7	3935	56.800451525779	68
7	3947	57.000451525779	69
7	3963	57.200451525779	70
7	3975	57.400451525779	71
7	3989	57.600451525779	72
7	4003	57.800451525779	73
7	4015	58.000451525779	74
7	4027	58.200451525779	75
7	4039	58.400451525779	76
7	4057	58.608610483143	77
7	4065	58.808610483143	78
7	4147	60.202378997619	79
7	4167	60.402378997619	80
7	4177	60.602378997619	81
7	4191	60.802378997619	82
7	4203	61.002378997619	83
7	4217	61.202378997619	84
7	4227	61.402378997619	85
7	4241	61.602378997619	86
7	4251	61.802378997619	87
7	4265	62.002378997619	88
7	4273	62.202378997619	89
7	4311	62.625525847562	90
7	4325	62.825525847562	91
7	4337	63.025525847562	92
7	4355	63.225525847562	93
7	4365	63.425525847562	94
7	4383	63.625525847562	95
7	4397	63.825525847562	96
7	4411	64.025525847562	97
7	4429	64.225525847562	98
7	4443	64.425525847562	99
7	4459	64.625525847562	100
7	4473	64.825525847562	101
7	4485	65.025525847562	102
7	4497	65.225525847562	103
7	4511	65.425525847562	104
7	4535	65.625525847562	105
7	4553	65.825525847562	106
7	4569	66.025525847562	107
7	4583	66.225525847562	108
7	4595	66.425525847562	109
7	4611	66.625525847562	110
7	4627	66.825525847562	111
7	4639	67.025525847562	112
7	4657	67.225525847562	113
7	4671	67.425525847562	114
7	4683	67.625525847562	115
7	4697	67.825525847562	116
7	4717	68.025525847562	117
7	4733	68.225525847562	118
7	4747	68.425525847562	119
7	4763	68.625525847562	120
7	4775	68.825525847562	121
7	4789	69.025525847562	122
7	4803	69.225525847562	123
7	4821	69.425525847562	124
7	4831	69.625525847562	125
7	4847	69.825525847562	126
7	4861	70.025525847562	127
7	4875	70.225525847562	128
7	4891	70.425525847562	129
7	4905	70.625525847562	130
7	4921	70.825525847562	131
7	4937	71.025525847562	132
7	4955	71.225525847562	133
7	4971	71.425525847562	134
7	4983	71.625525847562	135
7	4999	71.825525847562	136
7	5013	72.025525847562	137
7	5029	72.225525847562	138
7	5041	72.425525847562	139
7	5055	72.625525847562	140
7	5067	72.825525847562	141
7	5081	73.025525847562	142
7	5095	73.225525847562	143
7	5107	73.425525847562	144
7	5121	73.625525847562	145
7	5137	73.825525847562	146
7	5151	74.025525847562	147
7	5167	74.225525847562	148
7	5179	74.425525847562	149
7	5193	74.625525847562	150
7	5211	74.825525847562	151
7	5223	75.025525847562	152
7	5237	75.225525847562	153
7	5253	75.425525847562	154
7	5263	75.625525847562	155
7	5275	75.825525847562	156
7	5289	76.025525847562	157
7	5303	76.225525847562	158
7	5315	76.425525847562	159
7	5329	76.625525847562	160
7	5341	76.825525847562	161
7	5355	77.025525847562	162
7	5367	77.225525847562	163
7	5377	77.425525847562	164
7	5387	77.625525847562	165
7	5399	77.825525847562	166
7	5419	78.025525847562	167
7	5433	78.225525847562	168
7	5447	78.425525847562	169
7	5457	78.625525847562	170
7	5473	78.825525847562	171
7	5487	79.025525847562	172
7	5499	79.225525847562	173
7	5515	79.425525847562	174
7	5525	79.625525847562	175
7	5545	79.825525847562	176
7	5563	80.025525847562	177
7	5577	80.225525847562	178
7	5589	80.425525847562	179
7	5601	80.625525847562	180
7	5617	80.825525847562	181
7	5627	81.025525847562	182
7	5641	81.225525847562	183
7	5665	81.425525847562	184
7	5679	81.625525847562	185
7	5697	81.825525847562	186
7	5711	82.025525847562	187
7	5733	82.225525847562	188
7	5747	82.425525847562	189
7	5769	82.625525847562	190
7	5779	82.825525847562	191
7	5791	83.025525847562	192
7	5805	83.225525847562	193
7	5815	83.425525847562	194
7	5829	83.625525847562	195
7	5839	83.825525847562	196
7	5853	84.025525847562	197
7	5869	84.225525847562	198
7	5883	84.425525847562	199
7	5897	84.625525847562	200
7	5909	84.825525847562	201
7	5919	85.025525847562	202
7	5935	85.225525847562	203
7	5949	85.425525847562	204
7	5965	85.625525847562	205
7	5979	85.825525847562	206
7	5995	86.025525847562	207
7	6009	86.225525847562	208
7	6021	86.425525847562	209
7	6033	86.625525847562	210
7	6049	86.825525847562	211
7	6065	87.025525847562	212
7	6077	87.225525847562	213
7	6091	87.425525847562	214
7	6107	87.625525847562	215
7	6117	87.825525847562	216
7	6129	88.025525847562	217
7	6143	88.225525847562	218
7	6155	88.425525847562	219
7	6173	88.625525847562	220
7	6187	88.825525847562	221
7	6199	89.025525847562	222
7	6213	89.225525847562	223
7	6223	89.425525847562	224
7	6235	89.625525847562	225
7	6247	89.825525847562	226
7	6259	90.025525847562	227
7	6271	90.225525847562	228
7	6283	90.425525847562	229
7	6297	90.625525847562	230
7	6309	90.825525847562	231
7	6319	91.025525847562	232
7	6339	91.225525847562	233
7	6351	91.425525847562	234
7	6363	91.625525847562	235
7	6375	91.825525847562	236
7	6391	92.025525847562	237
7	6405	92.225525847562	238
7	6419	92.425525847562	239
7	6431	92.625525847562	240
7	6449	92.825525847562	241
7	6467	93.025525847562	242
7	6481	93.225525847562	243
7	6495	93.425525847562	244
7	6513	93.625525847562	245
7	6525	93.825525847562	246
7	6537	94.025525847562	247
7	6553	94.225525847562	248
7	6569	94.425525847562	249
7	6579	94.625525847562	250
7	6595	94.825525847562	251
7	6607	95.025525847562	252
7	6621	95.225525847562	253
7	6631	95.425525847562	254
7	6649	95.625525847562	255
7	6663	95.825525847562	256
7	6673	96.025525847562	257
7	6687	96.225525847562	258
7	6697	96.425525847562	259
7	6707	96.625525847562	260
7	6723	96.825525847562	261
7	6737	97.025525847562	262
7	6755	97.225525847562	263
7	6769	97.425525847562	264
7	6789	97.625525847562	265
7	6801	97.825525847562	266
7	6813	98.025525847562	267
7	6827	98.225525847562	268
7	6837	98.425525847562	269
7	6851	98.625525847562	270
7	6863	98.825525847562	271
7	6875	99.025525847562	272
7	6893	99.225525847562	273
7	6905	99.425525847562	274
7	6921	99.625525847562	275
7	6933	99.825525847562	276
7	6943	100.025525847562	277
7	6961	100.225525847562	278
7	6971	100.425525847562	279
7	6989	100.625525847562	280
7	7001	100.825525847562	281
7	7015	101.025525847562	282
7	7031	101.225525847562	283
7	7047	101.425525847562	284
7	7059	101.625525847562	285
7	7075	101.825525847562	286
7	7087	102.025525847562	287
7	7097	102.225525847562	288
7	7109	102.425525847562	289
7	7125	102.625525847562	290
7	7139	102.825525847562	291
7	7153	103.025525847562	292
7	7169	103.225525847562	293
7	7183	103.425525847562	294
7	7197	103.625525847562	295
7	7213	103.825525847562	296
7	7223	104.025525847562	297
7	7237	104.225525847562	298
7	7247	104.425525847562	299
7	7265	104.625525847562	300
7	7277	104.825525847562	301
7	7291	105.025525847562	302
7	7305	105.225525847562	303
7	7321	105.425525847562	304
7	7337	105.625525847562	305
7	7355	105.825525847562	306
7	7373	106.025525847562	307
7	7383	106.225525847562	308
7	7401	106.425525847562	309
7	7421	106.625525847562	310
7	7433	106.825525847562	311
7	7449	107.025525847562	312
7	7459	107.225525847562	313
7	7477	107.425525847562	314
7	7493	107.625525847562	315
7	7507	107.825525847562	316
7	7521	108.025525847562	317
7	7531	108.225525847562	318
7	7549	108.425525847562	319
7	7565	108.625525847562	320
7	7575	108.825525847562	321
7	7587	109.025525847562	322
7	7599	109.225525847562	323
7	7611	109.425525847562	324
7	7623	109.625525847562	325
7	7637	109.825525847562	326
7	7649	110.025525847562	327
7	7663	110.225525847562	328
7	7677	110.425525847562	329
7	7695	110.625525847562	330
7	7707	110.825525847562	331
7	7719	111.025525847562	332
7	7735	111.225525847562	333
7	7745	111.425525847562	334
7	7755	111.625525847562	335
7	7771	111.825525847562	336
7	7783	112.025525847562	337
7	7801	112.225525847562	338
7	7815	112.425525847562	339
7	7829	112.625525847562	340
7	7841	112.825525847562	341
7	7853	113.025525847562	342
7	7865	113.225525847562	343
7	7883	113.425525847562	344
7	7893	113.625525847562	345
7	7905	113.825525847562	346
7	7917	114.025525847562	347
7	7931	114.225525847562	348
7	7945	114.425525847562	349
7	7959	114.625525847562	350
7	7973	114.825525847562	351
7	7985	115.025525847562	352
7	7997	115.225525847562	353
7	8011	115.425525847562	354
7	8021	115.625525847562	355
7	8035	115.825525847562	356
7	8057	116.025525847562	357
7	8071	116.225525847562	358
7	8083	116.425525847562	359
7	8097	116.625525847562	360
7	8113	116.825525847562	361
7	8123	117.025525847562	362
7	8141	117.225525847562	363
7	8151	117.425525847562	364
7	8169	117.625525847562	365
7	8185	117.825525847562	366
7	8201	118.025525847562	367
7	8213	118.225525847562	368
7	8227	118.425525847562	369
7	8245	118.625525847562	370
7	8261	118.825525847562	371
7	8275	119.025525847562	372
7	8289	119.225525847562	373
7	8299	119.425525847562	374
7	8315	119.625525847562	375
7	8329	119.825525847562	376
7	8345	120.025525847562	377
7	8355	120.225525847562	378
7	8365	120.425525847562	379
7	8381	120.625525847562	380
7	8395	120.825525847562	381
7	8411	121.025525847562	382
7	8421	121.225525847562	383
7	8433	121.425525847562	384
7	8445	121.625525847562	385
7	8463	121.825525847562	386
7	8479	122.025525847562	387
7	8489	122.225525847562	388
7	8507	122.425525847562	389
7	8523	122.625525847562	390
7	8535	122.825525847562	391
7	8551	123.025525847562	392
7	8563	123.225525847562	393
7	8577	123.425525847562	394
7	8593	123.625525847562	395
7	8603	123.825525847562	396
7	8619	124.025525847562	397
7	8637	124.225525847562	398
7	8651	124.425525847562	399
7	8663	124.625525847562	400
7	8681	124.825525847562	401
7	8691	125.025525847562	402
7	8701	125.225525847562	403
7	8711	125.425525847562	404
7	8723	125.625525847562	405
7	8733	125.825525847562	406
7	8747	126.025525847562	407
7	8761	126.225525847562	408
7	8771	126.425525847562	409
7	8785	126.625525847562	410
7	8799	126.825525847562	411
7	8811	127.025525847562	412
7	8893	128.380012664167	413
7	8913	128.580012664167	414
7	8925	128.780012664167	415
7	8939	128.980012664167	416
7	8949	129.180012664167	417
7	8969	129.380012664167	418
7	8983	129.580012664167	419
7	8993	129.780012664167	420
7	9007	129.980012664167	421
7	9017	130.180012664167	422
7	9029	130.380012664167	423
7	9043	130.580012664167	424
7	9055	130.780012664167	425
7	9067	130.980012664167	426
7	9077	131.180012664167	427
7	9089	131.418295054888	428
7	9123	131.843559767573	429
7	9139	132.043559767573	430
7	9151	132.243559767573	431
7	9163	132.443559767573	432
7	9182	132.643559767573	433
7	9199	132.84650130489	434
7	9217	133.04650130489	435
7	9227	133.24650130489	436
7	9239	133.44650130489	437
7	9251	133.64650130489	438
7	9267	133.84650130489	439
7	9285	134.04650130489	440
7	9299	134.24650130489	441
7	9309	134.44650130489	442
7	9321	134.64650130489	443
7	9331	134.84650130489	444
7	9349	135.074781545182	445
7	9369	135.274781545182	446
7	9389	135.474781545182	447
7	9405	135.674781545182	448
7	9417	135.874781545182	449
7	9431	136.074781545182	450
7	9451	136.274781545182	451
7	9465	136.474781545182	452
7	9481	136.674781545182	453
7	9493	136.874781545182	454
7	9505	137.074781545182	455
7	9519	137.274781545182	456
7	9533	137.474781545182	457
7	9549	137.674781545182	458
7	9563	137.874781545182	459
7	9581	138.074781545182	460
7	9597	138.274781545182	461
7	9613	138.474781545182	462
7	9629	138.674781545182	463
7	9643	138.874781545182	464
7	9657	139.074781545182	465
7	9669	139.274781545182	466
7	9679	139.474781545182	467
7	9695	139.674781545182	468
7	9707	139.874781545182	469
7	9723	140.074781545182	470
7	9735	140.274781545182	471
7	9749	140.474781545182	472
7	9759	140.674781545182	473
7	9773	140.874781545182	474
7	9787	141.074781545182	475
7	9797	141.274781545182	476
7	9807	141.474781545182	477
7	9825	141.674781545182	478
7	9839	141.874781545182	479
7	9851	142.074781545182	480
7	9863	142.274781545182	481
7	9879	142.474781545182	482
7	9901	142.674781545182	483
7	9931	142.874781545182	484
7	9943	143.074781545182	485
7	9961	143.274781545182	486
7	9973	143.474781545182	487
7	9985	143.674781545182	488
7	9999	143.874781545182	489
7	10009	144.074781545182	490
7	10027	144.274781545182	491
7	10043	144.474781545182	492
7	10061	144.674781545182	493
7	10075	144.874781545182	494
7	10089	145.074781545182	495
7	10105	145.274781545182	496
7	10117	145.474781545182	497
7	10133	145.674781545182	498
7	10145	145.874781545182	499
7	10157	146.074781545182	500
7	10173	146.274781545182	501
7	10183	146.474781545182	502
7	10193	146.674781545182	503
7	10205	146.874781545182	504
7	10219	147.074781545182	505
7	10235	147.274781545182	506
7	10249	147.474781545182	507
7	10269	147.674781545182	508
7	10285	147.874781545182	509
7	10303	148.074781545182	510
7	10317	148.274781545182	511
7	10339	148.474781545182	512
7	10349	148.674781545182	513
7	10361	148.874781545182	514
7	10379	149.074781545182	515
7	10395	149.274781545182	516
7	10409	149.474781545182	517
7	10421	149.674781545182	518
7	10431	149.874781545182	519
7	10443	150.074781545182	520
7	10457	150.274781545182	521
7	10467	150.474781545182	522
7	10483	150.674781545182	523
7	10497	150.874781545182	524
7	10509	151.074781545182	525
7	10523	151.274781545182	526
7	10535	151.474781545182	527
7	10549	151.674781545182	528
7	10563	151.874781545182	529
7	10575	152.074781545182	530
7	10591	152.274781545182	531
7	10609	152.474781545182	532
7	10619	152.674781545182	533
7	10635	152.874781545182	534
7	10647	153.074781545182	535
7	10663	153.274781545182	536
7	10677	153.474781545182	537
7	10691	153.674781545182	538
7	10703	153.874781545182	539
7	10715	154.074781545182	540
7	10727	154.274781545182	541
7	10739	154.474781545182	542
7	10749	154.674781545182	543
7	10759	154.874781545182	544
7	10775	155.074781545182	545
7	10787	155.274781545182	546
7	10797	155.474781545182	547
7	10811	155.674781545182	548
7	10825	155.874781545182	549
7	10841	156.074781545182	550
7	10855	156.274781545182	551
7	10871	156.474781545182	552
7	10881	156.674781545182	553
7	10897	156.874781545182	554
7	10913	157.074781545182	555
7	10929	157.274781545182	556
7	10941	157.474781545182	557
7	10957	157.674781545182	558
7	10967	157.874781545182	559
7	10983	158.074781545182	560
7	10997	158.274781545182	561
7	11009	158.474781545182	562
7	11023	158.674781545182	563
7	11033	158.874781545182	564
7	11047	159.074781545182	565
7	11071	159.274781545182	566
7	11083	159.474781545182	567
7	11101	159.674781545182	568
7	11115	159.874781545182	569
7	11129	160.074781545182	570
7	11141	160.274781545182	571
7	11151	160.474781545182	572
7	11163	160.674781545182	573
7	11175	160.874781545182	574
7	11191	161.074781545182	575
7	11201	161.274781545182	576
7	11221	161.474781545182	577
7	11241	161.674781545182	578
7	11251	161.874781545182	579
7	11265	162.074781545182	580
7	11281	162.274781545182	581
7	11293	162.474781545182	582
7	11307	162.674781545182	583
7	11319	162.874781545182	584
7	11333	163.074781545182	585
7	11347	163.274781545182	586
7	11359	163.474781545182	587
7	11371	163.674781545182	588
7	11387	163.874781545182	589
7	11403	164.074781545182	590
7	11417	164.274781545182	591
7	11441	164.474781545182	592
7	11457	164.674781545182	593
7	11469	164.874781545182	594
7	11483	165.074781545182	595
7	11509	165.274781545182	596
7	11525	165.474781545182	597
7	11541	165.674781545182	598
7	11553	165.874781545182	599
7	11567	166.074781545182	600
7	11583	166.274781545182	601
7	11597	166.474781545182	602
7	11613	166.674781545182	603
7	11625	166.874781545182	604
7	11639	167.074781545182	605
7	11651	167.274781545182	606
7	11669	167.474781545182	607
7	11685	167.674781545182	608
7	11699	167.874781545182	609
7	11715	168.074781545182	610
7	11731	168.274781545182	611
7	11747	168.474781545182	612
7	11759	168.674781545182	613
7	11775	168.874781545182	614
7	11787	169.074781545182	615
7	11797	169.274781545182	616
7	11811	169.474781545182	617
7	11829	169.674781545182	618
7	11843	169.874781545182	619
7	11855	170.074781545182	620
7	11867	170.274781545182	621
7	11877	170.474781545182	622
7	11891	170.674781545182	623
7	11907	170.874781545182	624
7	11919	171.074781545182	625
7	11931	171.274781545182	626
7	11947	171.474781545182	627
7	11959	171.674781545182	628
7	11971	171.874781545182	629
7	11991	172.074781545182	630
7	12005	172.274781545182	631
7	12017	172.474781545182	632
7	12029	172.674781545182	633
7	12043	172.874781545182	634
7	12061	173.074781545182	635
7	12075	173.274781545182	636
7	12085	173.474781545182	637
7	12103	173.674781545182	638
7	12117	173.874781545182	639
7	12131	174.074781545182	640
7	12145	174.274781545182	641
7	12157	174.474781545182	642
7	12173	174.674781545182	643
7	12189	174.874781545182	644
7	12203	175.074781545182	645
7	12217	175.274781545182	646
7	12235	175.474781545182	647
7	12247	175.674781545182	648
7	12259	175.874781545182	649
7	12269	176.074781545182	650
7	12285	176.274781545182	651
7	12301	176.474781545182	652
7	12317	176.674781545182	653
7	12331	176.874781545182	654
7	12343	177.074781545182	655
7	12359	177.274781545182	656
7	12371	177.474781545182	657
7	12381	177.674781545182	658
7	12395	177.874781545182	659
7	12407	178.074781545182	660
7	12419	178.274781545182	661
7	12429	178.474781545182	662
7	12439	178.674781545182	663
7	12451	178.874781545182	664
7	12471	179.074781545182	665
7	12487	179.274781545182	666
7	12505	179.474781545182	667
7	12519	179.674781545182	668
7	12531	179.874781545182	669
7	12543	180.074781545182	670
7	12557	180.274781545182	671
7	12573	180.474781545182	672
7	12585	180.674781545182	673
7	12597	180.874781545182	674
7	12615	181.074781545182	675
7	12631	181.274781545182	676
7	12645	181.474781545182	677
7	12657	181.674781545182	678
7	12671	181.874781545182	679
7	12681	182.074781545182	680
7	12699	182.274781545182	681
7	12715	182.474781545182	682
7	12727	182.674781545182	683
7	12743	182.874781545182	684
7	12753	183.074781545182	685
7	12769	183.274781545182	686
7	12781	183.474781545182	687
7	12795	183.674781545182	688
7	12811	183.874781545182	689
7	12825	184.074781545182	690
7	12835	184.274781545182	691
7	12847	184.474781545182	692
7	12863	184.674781545182	693
7	12873	184.874781545182	694
7	12887	185.074781545182	695
7	12901	185.274781545182	696
7	12917	185.474781545182	697
7	12931	185.674781545182	698
7	12945	185.874781545182	699
7	12957	186.074781545182	700
7	12975	186.274781545182	701
7	12985	186.474781545182	702
7	12997	186.674781545182	703
7	13011	186.874781545182	704
7	13025	187.074781545182	705
7	13041	187.274781545182	706
7	13059	187.474781545182	707
7	13073	187.674781545182	708
7	13085	187.874781545182	709
7	13101	188.074781545182	710
7	13113	188.274781545182	711
7	13125	188.474781545182	712
7	13135	188.674781545182	713
7	13151	188.874781545182	714
7	13163	189.074781545182	715
7	13177	189.274781545182	716
7	13197	189.474781545182	717
7	13211	189.674781545182	718
7	13223	189.874781545182	719
7	13233	190.074781545182	720
7	13249	190.274781545182	721
7	13267	190.474781545182	722
7	13279	190.674781545182	723
7	13291	190.874781545182	724
7	13307	191.074781545182	725
7	13319	191.274781545182	726
7	13331	191.474781545182	727
7	13341	191.674781545182	728
7	13355	191.874781545182	729
7	13367	192.074781545182	730
7	13383	192.274781545182	731
7	13401	192.474781545182	732
7	13415	192.674781545182	733
7	13427	192.874781545182	734
7	13441	193.074781545182	735
7	13453	193.274781545182	736
7	13471	193.474781545182	737
7	13485	193.674781545182	738
7	13499	193.874781545182	739
7	13517	194.074781545182	740
7	13527	194.274781545182	741
7	13541	194.474781545182	742
7	13559	194.674781545182	743
7	13571	194.874781545182	744
7	13583	195.074781545182	745
7	13597	195.274781545182	746
7	13611	195.474781545182	747
7	13621	195.674781545182	748
7	13633	195.874781545182	749
7	13647	196.074781545182	750
7	13661	196.274781545182	751
7	13671	196.474781545182	752
7	13681	196.674781545182	753
7	13691	196.874781545182	754
7	13703	197.074781545182	755
7	13719	197.274781545182	756
7	13735	197.474781545182	757
7	13749	197.674781545182	758
7	13763	197.874781545182	759
7	13775	198.074781545182	760
7	13789	198.274781545182	761
7	13805	198.474781545182	762
7	13819	198.674781545182	763
7	13831	198.874781545182	764
7	13843	199.074781545182	765
7	13859	199.274781545182	766
7	13871	199.474781545182	767
7	13883	199.674781545182	768
7	13901	199.874781545182	769

